<?xml version="1.0" encoding="UTF-8"?>

<!-- generated on 2025-04-09 18:56:08.843582 by randomTrips.py UNKNOWN
<configuration>
    <net-file value="net/bh.net.xml"/>
    <output-trip-file value="routes/bh.trips.xml"/>
    <route-file value="routes/bh.rou.xml"/>
    <validate value="True"/>
    <period value="0.005"/>
</configuration>
-->

<!-- generated on 2025-04-09 18:55:59 by Eclipse SUMO duarouter Version 1.18.0
<configuration xmlns:xsi="http://www.w3.org/2001/XMLSchema-instance" xsi:noNamespaceSchemaLocation="http://sumo.dlr.de/xsd/duarouterConfiguration.xsd">

    <input>
        <net-file value="net/bh.net.xml"/>
        <route-files value="routes/bh.trips.xml"/>
    </input>

    <output>
        <output-file value="routes/bh.rou.xml"/>
        <alternatives-output value="NUL"/>
    </output>

    <time>
        <begin value="0.0"/>
        <end value="3600.0"/>
    </time>

    <report>
        <no-warnings value="true"/>
        <ignore-errors value="true"/>
        <no-step-log value="true"/>
    </report>

</configuration>
-->

<routes xmlns:xsi="http://www.w3.org/2001/XMLSchema-instance" xsi:noNamespaceSchemaLocation="http://sumo.dlr.de/xsd/routes_file.xsd">
    <vehicle id="13" depart="0.06">
        <route edges="220062664#1 220062664#2 220062664#3"/>
    </vehicle>
    <vehicle id="127" depart="0.64">
        <route edges="9704153#1"/>
    </vehicle>
    <vehicle id="256" depart="1.28">
        <route edges="5171069#0 5171069#1 279160683#0 279160683#1"/>
    </vehicle>
    <vehicle id="520" depart="2.60">
        <route edges="5152341#0 5152341#1 5152341#2 282335130#0 282335130#1"/>
    </vehicle>
    <vehicle id="540" depart="2.70">
        <route edges="279574970#2 251870223#0"/>
    </vehicle>
    <vehicle id="755" depart="3.77">
        <route edges="289660480#0 289660480#1"/>
    </vehicle>
    <vehicle id="777" depart="3.88">
        <route edges="240144753 516907677#0 516907677#1"/>
    </vehicle>
    <vehicle id="792" depart="3.96">
        <route edges="240380127#2 240380127#3"/>
    </vehicle>
    <vehicle id="837" depart="4.18">
        <route edges="279161379#1 279160692"/>
    </vehicle>
    <vehicle id="1137" depart="5.68">
        <route edges="970169189#0 970169189#1 970169189#2"/>
    </vehicle>
    <vehicle id="1176" depart="5.88">
        <route edges="281149186#0 281149186#1 279564821"/>
    </vehicle>
    <vehicle id="1404" depart="7.02">
        <route edges="654360301 654360300#0 654360300#1 654360300#2 278516386 278514575#0"/>
    </vehicle>
    <vehicle id="1421" depart="7.10">
        <route edges="654360300#1 654360300#2 278516386 278514581#0"/>
    </vehicle>
    <vehicle id="1794" depart="8.97">
        <route edges="970169189#0 970169189#1 970169189#2"/>
    </vehicle>
    <vehicle id="1934" depart="9.67">
        <route edges="282340560#4 4498809#8 4498809#9 4498809#10 889471502#0 889471502#1 889471502#2 889471502#3 889471502#4 889471502#5 965707623#0 965707623#1 4498809#0 4498809#1 4498809#2 4498809#3 4498809#4 4498809#5 4930925 1015627203"/>
    </vehicle>
    <vehicle id="1974" depart="9.87">
        <route edges="281149186#0 281149186#1 279564821"/>
    </vehicle>
    <vehicle id="2030" depart="10.15">
        <route edges="279574970#0 279574970#1 279574970#2 4497968"/>
    </vehicle>
    <vehicle id="2168" depart="10.84">
        <route edges="292774386#2 292774386#3"/>
    </vehicle>
    <vehicle id="2218" depart="11.09">
        <route edges="965707624#0 965707624#1 4498809#0 4498809#1 4498809#2 4498809#3 4498809#4 4498809#5 4498809#6 4498809#7 4498809#8 4498809#9 4498809#10 5152341#0 5152341#1 5152341#2 282335130#0"/>
    </vehicle>
    <vehicle id="2284" depart="11.42">
        <route edges="240380147#1"/>
    </vehicle>
    <vehicle id="2289" depart="11.45">
        <route edges="278917072 278916857 -278916857 -278917072 279099869"/>
    </vehicle>
    <vehicle id="2333" depart="11.67">
        <route edges="282340560#2 282340560#3 282340560#4 4498809#8 4498809#9 4498809#10 5152341#0 5152341#1"/>
    </vehicle>
    <vehicle id="2421" depart="12.11">
        <route edges="970173986#1 889471502#2 889471502#3 889471502#4 889471502#5 965707623#0 965707623#1 4498809#0 4498809#1 4498809#2 4498809#3 4498809#4 4498809#5 4930925"/>
    </vehicle>
    <vehicle id="2493" depart="12.47">
        <route edges="222066032 240144753 4600722"/>
    </vehicle>
    <vehicle id="2513" depart="12.57">
        <route edges="278917072 278916857 -278916857 -278917072"/>
    </vehicle>
    <vehicle id="2575" depart="12.88">
        <route edges="639081437 4566432#0 4566432#1"/>
    </vehicle>
    <vehicle id="2649" depart="13.25">
        <route edges="282340560#2 282340560#3 282340560#4 4498809#8 5171177#0 5171177#1 279160695"/>
    </vehicle>
    <vehicle id="2686" depart="13.43">
        <route edges="282340560#0 282340560#1 282340560#2 282340560#3 282340560#4 4498809#8 4498809#9 4498809#10 889471502#0 889471502#1 889471502#2 889471502#3 889471502#4 889471502#5 9704153#0 9704153#1"/>
    </vehicle>
    <vehicle id="2939" depart="14.70">
        <route edges="278912559 278917072 278916857 -278916857 -278917072"/>
    </vehicle>
    <vehicle id="3124" depart="15.62">
        <route edges="278519874 278516386 278514581#0 278514581#1"/>
    </vehicle>
    <vehicle id="3183" depart="15.92">
        <route edges="240144753 4600722 236734220 222066032"/>
    </vehicle>
    <vehicle id="3256" depart="16.28">
        <route edges="282340560#0 282340560#1 282340560#2 282340560#3 282340560#4 4498809#8 4498809#9 4498809#10 889471502#0 889471502#1 889471502#2 889471502#3 889471502#4 889471502#5 965707623#0 965707623#1 4498809#0 4498809#1 4498809#2 4498809#3 4498809#4 4498809#5 4930925 1015627203 227812175#0 227812175#1"/>
    </vehicle>
    <vehicle id="3426" depart="17.13">
        <route edges="253082656#1 253082656#2"/>
    </vehicle>
    <vehicle id="3431" depart="17.16">
        <route edges="4527482#0 4527482#1"/>
    </vehicle>
    <vehicle id="3498" depart="17.49">
        <route edges="4566432#0 4566432#1 4566432#2"/>
    </vehicle>
    <vehicle id="3659" depart="18.30">
        <route edges="292774386#0 292774386#1"/>
    </vehicle>
    <vehicle id="3776" depart="18.88">
        <route edges="9704153#1 9704153#2"/>
    </vehicle>
    <vehicle id="3786" depart="18.93">
        <route edges="280761616"/>
    </vehicle>
    <vehicle id="3796" depart="18.98">
        <route edges="654360300#2 278516386"/>
    </vehicle>
    <vehicle id="3900" depart="19.50">
        <route edges="4567168#1 378662388#0 378662388#1"/>
    </vehicle>
    <vehicle id="4058" depart="20.29">
        <route edges="965704699#1 5098727"/>
    </vehicle>
    <vehicle id="4059" depart="20.30">
        <route edges="293037232#0 293037232#1 293037232#2 293037232#3 293037232#4"/>
    </vehicle>
    <vehicle id="4065" depart="20.33">
        <route edges="220062664#0"/>
    </vehicle>
    <vehicle id="4096" depart="20.48">
        <route edges="288919988#0 288919988#1 654360301 654360300#0 654360300#1 654360300#2 278516386 278514581#0 278514581#1"/>
    </vehicle>
    <vehicle id="4206" depart="21.03">
        <route edges="970173986#0 970173986#1 889471502#2 889471502#3 889471502#4 889471502#5 965707623#0 965707623#1 4498809#0 4498809#1 4498809#2 4498809#3 4498809#4 4498809#5 4498809#6 4498809#7 4498809#8 5171177#0"/>
    </vehicle>
    <vehicle id="4294" depart="21.47">
        <route edges="325789277 279574970#0 279574970#1 279574970#2 251870223#0"/>
    </vehicle>
    <vehicle id="4300" depart="21.50">
        <route edges="107120215#2"/>
    </vehicle>
    <vehicle id="4319" depart="21.59">
        <route edges="488882032 9704085"/>
    </vehicle>
    <vehicle id="4532" depart="22.66">
        <route edges="664436111 222066032 240144753 4600722 965764449"/>
    </vehicle>
    <vehicle id="4943" depart="24.71">
        <route edges="5171177#1 279160695 282335130#0 282335130#1"/>
    </vehicle>
    <vehicle id="4991" depart="24.95">
        <route edges="4600722 236734220 222066032"/>
    </vehicle>
    <vehicle id="5097" depart="25.48">
        <route edges="8095259#0 8095259#1 286637741#2"/>
    </vehicle>
    <vehicle id="5192" depart="25.96">
        <route edges="-815576149 815576149"/>
    </vehicle>
    <vehicle id="5361" depart="26.80">
        <route edges="240380127#0 240380127#1 240380127#2 240380127#3"/>
    </vehicle>
    <vehicle id="5604" depart="28.02">
        <route edges="278912559 278917072 278916857"/>
    </vehicle>
    <vehicle id="5884" depart="29.42">
        <route edges="293037232#1 293037232#2"/>
    </vehicle>
    <vehicle id="5947" depart="29.73">
        <route edges="280413904#0 280413904#1 228094723"/>
    </vehicle>
    <vehicle id="6365" depart="31.82">
        <route edges="240380149#1 240380149#2 240380149#3"/>
    </vehicle>
    <vehicle id="6421" depart="32.10">
        <route edges="228094723 262762467"/>
    </vehicle>
    <vehicle id="6494" depart="32.47">
        <route edges="253082656#0 253082656#1 253082656#2 279574970#0 279574970#1 279574970#2 251870223#0 251870223#1"/>
    </vehicle>
    <vehicle id="6659" depart="33.29">
        <route edges="279574970#0 279574970#1 279574970#2 4497968"/>
    </vehicle>
    <vehicle id="6938" depart="34.69">
        <route edges="-964698526 964698526"/>
    </vehicle>
    <vehicle id="6946" depart="34.73">
        <route edges="178502495#2"/>
    </vehicle>
    <vehicle id="6970" depart="34.85">
        <route edges="42005239#1"/>
    </vehicle>
    <vehicle id="7173" depart="35.86">
        <route edges="5152341#2 282335130#0 282335130#1"/>
    </vehicle>
    <vehicle id="7392" depart="36.96">
        <route edges="292774386#0 292774386#1 292774386#2 292774386#3"/>
    </vehicle>
    <vehicle id="7559" depart="37.80">
        <route edges="965645856 970173985"/>
    </vehicle>
    <vehicle id="7622" depart="38.11">
        <route edges="42005239#0 42005239#1 283261788 -283261788 -42005239#1 -42005239#0"/>
    </vehicle>
    <vehicle id="7683" depart="38.42">
        <route edges="664436111 222066032 240144753 516907677#0 516907677#1"/>
    </vehicle>
    <vehicle id="7951" depart="39.76">
        <route edges="5171071#1"/>
    </vehicle>
    <vehicle id="8067" depart="40.34">
        <route edges="107120215#3"/>
    </vehicle>
    <vehicle id="8186" depart="40.93">
        <route edges="4567168#1 378662388#0 378662388#1"/>
    </vehicle>
    <vehicle id="8304" depart="41.52">
        <route edges="279348362#0 279348362#1 279348362#2 279348362#3"/>
    </vehicle>
    <vehicle id="8346" depart="41.73">
        <route edges="285883731#0 285883731#1 285883731#2"/>
    </vehicle>
    <vehicle id="8456" depart="42.28">
        <route edges="970173986#1 889471502#2 889471502#3 889471502#4 889471502#5 9704153#0 9704153#1"/>
    </vehicle>
    <vehicle id="8510" depart="42.55">
        <route edges="970167016 292774386#0"/>
    </vehicle>
    <vehicle id="8556" depart="42.78">
        <route edges="279465758#0 279465758#1 378662388#0 378662388#1"/>
    </vehicle>
    <vehicle id="8700" depart="43.50">
        <route edges="654360301 654360300#0"/>
    </vehicle>
    <vehicle id="8985" depart="44.93">
        <route edges="188992752#0 279252530#1 279252530#2 244672377"/>
    </vehicle>
    <vehicle id="9162" depart="45.81">
        <route edges="5152341#2"/>
    </vehicle>
    <vehicle id="9264" depart="46.32">
        <route edges="282340560#4 4498809#8 5171177#0 5171177#1"/>
    </vehicle>
    <vehicle id="9269" depart="46.35">
        <route edges="279402174#1 286637741#1 286637741#2"/>
    </vehicle>
    <vehicle id="9358" depart="46.79">
        <route edges="278931269#0 278931269#1"/>
    </vehicle>
    <vehicle id="9364" depart="46.82">
        <route edges="280413904#1 228094723 497789340#1 497789340#2"/>
    </vehicle>
    <vehicle id="9389" depart="46.95">
        <route edges="278519874 278516386 278514575#0"/>
    </vehicle>
    <vehicle id="9409" depart="47.05">
        <route edges="280940883 964691300 286637741#0 286637741#1"/>
    </vehicle>
    <vehicle id="9449" depart="47.25">
        <route edges="964691300 286637741#0 286637741#1"/>
    </vehicle>
    <vehicle id="9480" depart="47.40">
        <route edges="4600722 236734220 222066032 240144753 516907677#0"/>
    </vehicle>
    <vehicle id="9560" depart="47.80">
        <route edges="227815901#0 227815901#1"/>
    </vehicle>
    <vehicle id="9580" depart="47.90">
        <route edges="5152341#1 5152341#2 282335130#0 282335130#1 970173985"/>
    </vehicle>
    <vehicle id="9669" depart="48.35">
        <route edges="4930925 1015627203 227812175#0"/>
    </vehicle>
    <vehicle id="9681" depart="48.41">
        <route edges="-279564821 815576149"/>
    </vehicle>
    <vehicle id="9720" depart="48.60">
        <route edges="-278917072 278917072 278916857"/>
    </vehicle>
    <vehicle id="9747" depart="48.74">
        <route edges="288919988#1 654360301 654360300#0 654360300#1 654360300#2 278516386 278514581#0"/>
    </vehicle>
    <vehicle id="9784" depart="48.92">
        <route edges="965707624#1 4498809#0 4498809#1 4498809#2 4498809#3 4498809#4 4498809#5 4930925"/>
    </vehicle>
    <vehicle id="9793" depart="48.97">
        <route edges="970167016 292774386#0"/>
    </vehicle>
    <vehicle id="9896" depart="49.48">
        <route edges="288919988#1 654360301 654360300#0"/>
    </vehicle>
    <vehicle id="9938" depart="49.69">
        <route edges="963776267 240377411 236734220 222066032"/>
    </vehicle>
    <vehicle id="9940" depart="49.70">
        <route edges="279574970#1"/>
    </vehicle>
    <vehicle id="10040" depart="50.20">
        <route edges="279252530#0 279252530#1 279252530#2 244672377"/>
    </vehicle>
    <vehicle id="10167" depart="50.84">
        <route edges="236734220 222066032 240144753 516907677#0 516907677#1"/>
    </vehicle>
    <vehicle id="10185" depart="50.93">
        <route edges="256924423#1"/>
    </vehicle>
    <vehicle id="10277" depart="51.39">
        <route edges="4566432#2 4566432#3 279160687#0"/>
    </vehicle>
    <vehicle id="10382" depart="51.91">
        <route edges="240380127#2 240380127#3"/>
    </vehicle>
    <vehicle id="10387" depart="51.94">
        <route edges="42005239#0 42005239#1 283261788 -283261788 -42005239#1"/>
    </vehicle>
    <vehicle id="10402" depart="52.01">
        <route edges="279465758#0 279465758#1 378662388#0"/>
    </vehicle>
    <vehicle id="10741" depart="53.71">
        <route edges="4567163 1200947407 279160694#0 279160694#1 227812175#0"/>
    </vehicle>
    <vehicle id="10803" depart="54.02">
        <route edges="965704699#1 251808227"/>
    </vehicle>
    <vehicle id="10815" depart="54.08">
        <route edges="5171177#0 5171177#1 279160695 282335130#0 282335130#1"/>
    </vehicle>
    <vehicle id="10961" depart="54.81">
        <route edges="279163182 9704085"/>
    </vehicle>
    <vehicle id="11085" depart="55.43">
        <route edges="279406737#1 279406737#2"/>
    </vehicle>
    <vehicle id="11561" depart="57.81">
        <route edges="965683935 -965683935"/>
    </vehicle>
    <vehicle id="11626" depart="58.13">
        <route edges="288919988#1 654360301"/>
    </vehicle>
    <vehicle id="11647" depart="58.24">
        <route edges="5173216#1 5173216#2"/>
    </vehicle>
    <vehicle id="11686" depart="58.43">
        <route edges="1200947407 279160694#0 279160694#1"/>
    </vehicle>
    <vehicle id="11744" depart="58.72">
        <route edges="285883731#1"/>
    </vehicle>
    <vehicle id="11818" depart="59.09">
        <route edges="282340560#1 282340560#2 282340560#3 282340560#4 4498809#8 4498809#9 4498809#10 889471502#0 889471502#1 889471502#2 889471502#3 889471502#4 889471502#5 965707623#0 965707623#1 4498809#0 4498809#1 4498809#2 4498809#3 4498809#4 4498809#5 4930925 1015627203 227812175#0"/>
    </vehicle>
    <vehicle id="11860" depart="59.30">
        <route edges="-278724457 278724456"/>
    </vehicle>
    <vehicle id="11894" depart="59.47">
        <route edges="4566432#1 4566432#2"/>
    </vehicle>
    <vehicle id="12008" depart="60.04">
        <route edges="253082656#1 253082656#2 279574970#0"/>
    </vehicle>
    <vehicle id="12025" depart="60.13">
        <route edges="518112761#0 518112761#1"/>
    </vehicle>
    <vehicle id="12066" depart="60.33">
        <route edges="639081437 4566432#0 4566432#1 4566432#2 4566432#3 279160691 279160692"/>
    </vehicle>
    <vehicle id="12218" depart="61.09">
        <route edges="654360300#0 654360300#1 654360300#2 278516386 278514581#0 278514581#1"/>
    </vehicle>
    <vehicle id="12575" depart="62.88">
        <route edges="965707624#0 965707624#1 4498809#0 4498809#1 4498809#2 4498809#3 4498809#4 4498809#5 4498809#6 4498809#7 4498809#8 4498809#9 4498809#10 5152341#0 5152341#1 5152341#2"/>
    </vehicle>
    <vehicle id="12645" depart="63.23">
        <route edges="325789277 279574970#0 279574970#1 279574970#2"/>
    </vehicle>
    <vehicle id="12713" depart="63.57">
        <route edges="4930925 1015627203 227812175#0"/>
    </vehicle>
    <vehicle id="12776" depart="63.88">
        <route edges="-964698528 -279099870"/>
    </vehicle>
    <vehicle id="13095" depart="65.48">
        <route edges="28975065#1"/>
    </vehicle>
    <vehicle id="13139" depart="65.70">
        <route edges="654360300#0 654360300#1 654360300#2 278516386 278514581#0 278514581#1"/>
    </vehicle>
    <vehicle id="13190" depart="65.95">
        <route edges="279160694#0 279160694#1"/>
    </vehicle>
    <vehicle id="13263" depart="66.32">
        <route edges="281149186#0 281149186#1 279564821"/>
    </vehicle>
    <vehicle id="13364" depart="66.82">
        <route edges="970167016 292774386#0 292774386#1 292774386#2 292774386#3"/>
    </vehicle>
    <vehicle id="13428" depart="67.14">
        <route edges="517467232#1"/>
    </vehicle>
    <vehicle id="13461" depart="67.31">
        <route edges="178502495#1 178502495#2 244672377"/>
    </vehicle>
    <vehicle id="13594" depart="67.97">
        <route edges="253082656#2 279574970#0 279574970#1 279574970#2 251870223#0 251870223#1"/>
    </vehicle>
    <vehicle id="13651" depart="68.26">
        <route edges="107120215#4"/>
    </vehicle>
    <vehicle id="13704" depart="68.52">
        <route edges="240380147#0 240380147#1 240380147#2 240380147#3"/>
    </vehicle>
    <vehicle id="13722" depart="68.61">
        <route edges="281149186#0 281149186#1 279564821"/>
    </vehicle>
    <vehicle id="13858" depart="69.29">
        <route edges="970173986#1 889471502#2 889471502#3 889471502#4 889471502#5 965707623#0 965707623#1 4498809#0 4498809#1 4498809#2 4498809#3 4498809#4 4498809#5 4498809#6 4498809#7 4498809#8 5171177#0"/>
    </vehicle>
    <vehicle id="13901" depart="69.51">
        <route edges="29192744#0 29192744#1 29192744#2"/>
    </vehicle>
    <vehicle id="14077" depart="70.39">
        <route edges="279160695 282335130#0 282335130#1 970173985"/>
    </vehicle>
    <vehicle id="14187" depart="70.94">
        <route edges="282340560#1 282340560#2 282340560#3"/>
    </vehicle>
    <vehicle id="14386" depart="71.93">
        <route edges="240380149#0 240380149#1 240380149#2 240380149#3 240380149#4"/>
    </vehicle>
    <vehicle id="14415" depart="72.08">
        <route edges="178502495#2 244672377"/>
    </vehicle>
    <vehicle id="14439" depart="72.20">
        <route edges="278429106#2"/>
    </vehicle>
    <vehicle id="14578" depart="72.89">
        <route edges="279484950#2 279484950#3 279484950#4"/>
    </vehicle>
    <vehicle id="14651" depart="73.26">
        <route edges="29192744#0 29192744#1 29192744#2"/>
    </vehicle>
    <vehicle id="14653" depart="73.27">
        <route edges="-283261788 -42005239#1 -42005239#0 42005239#0 42005239#1 283261788"/>
    </vehicle>
    <vehicle id="14720" depart="73.60">
        <route edges="240144753 516907677#0"/>
    </vehicle>
    <vehicle id="14753" depart="73.77">
        <route edges="278429106#2 278429106#3"/>
    </vehicle>
    <vehicle id="15010" depart="75.05">
        <route edges="292774386#1 292774386#2 292774386#3"/>
    </vehicle>
    <vehicle id="15020" depart="75.10">
        <route edges="240380149#2 240380149#3 240380149#4 240380149#5"/>
    </vehicle>
    <vehicle id="15069" depart="75.35">
        <route edges="9677552 235818355"/>
    </vehicle>
    <vehicle id="15209" depart="76.05">
        <route edges="240380149#3"/>
    </vehicle>
    <vehicle id="15228" depart="76.14">
        <route edges="240380149#2"/>
    </vehicle>
    <vehicle id="15233" depart="76.17">
        <route edges="936884775#1"/>
    </vehicle>
    <vehicle id="15355" depart="76.78">
        <route edges="107120215#0 107120215#1"/>
    </vehicle>
    <vehicle id="15481" depart="77.41">
        <route edges="4566432#2 4566432#3 279160691"/>
    </vehicle>
    <vehicle id="15534" depart="77.67">
        <route edges="279406737#0 279406737#1 279406737#2"/>
    </vehicle>
    <vehicle id="15630" depart="78.15">
        <route edges="964691300 286637741#0 286637741#1 286637741#2"/>
    </vehicle>
    <vehicle id="15881" depart="79.41">
        <route edges="654360300#2 278516386 278514581#0"/>
    </vehicle>
    <vehicle id="15896" depart="79.48">
        <route edges="107120215#3 107120215#4 107120215#5"/>
    </vehicle>
    <vehicle id="15931" depart="79.66">
        <route edges="279402174#0 279402174#1 286637741#1"/>
    </vehicle>
    <vehicle id="15958" depart="79.79">
        <route edges="93418913 4600753#0 4600753#1 945120649 251992220"/>
    </vehicle>
    <vehicle id="16077" depart="80.38">
        <route edges="5171071#0 5171071#1 515874486"/>
    </vehicle>
    <vehicle id="16196" depart="80.98">
        <route edges="279252530#0 279252530#1 279252530#2"/>
    </vehicle>
    <vehicle id="16208" depart="81.04">
        <route edges="280413904#0 280413904#1 228094723 262762467"/>
    </vehicle>
    <vehicle id="16286" depart="81.43">
        <route edges="5173525#0 5173525#1"/>
    </vehicle>
    <vehicle id="16343" depart="81.71">
        <route edges="378662391#0"/>
    </vehicle>
    <vehicle id="16475" depart="82.37">
        <route edges="279676721#0"/>
    </vehicle>
    <vehicle id="16496" depart="82.48">
        <route edges="107120215#0 107120215#1 107120215#2 107120215#3"/>
    </vehicle>
    <vehicle id="16547" depart="82.73">
        <route edges="639081437 4566432#0 4566432#1 4566432#2 4566432#3"/>
    </vehicle>
    <vehicle id="16577" depart="82.88">
        <route edges="222066032"/>
    </vehicle>
    <vehicle id="16626" depart="83.13">
        <route edges="5171177#1"/>
    </vehicle>
    <vehicle id="16680" depart="83.40">
        <route edges="279484950#2 279484950#3"/>
    </vehicle>
    <vehicle id="16705" depart="83.52">
        <route edges="5173216#0 5173216#1 5173216#2"/>
    </vehicle>
    <vehicle id="16860" depart="84.30">
        <route edges="-278916857 -278917072"/>
    </vehicle>
    <vehicle id="16921" depart="84.60">
        <route edges="279574970#0 279574970#1 279574970#2 251870223#0 251870223#1"/>
    </vehicle>
    <vehicle id="16983" depart="84.91">
        <route edges="284021502#2 284021502#3"/>
    </vehicle>
    <vehicle id="17006" depart="85.03">
        <route edges="253082656#2 279574970#0 279574970#1 279574970#2 251870223#0 251870223#1"/>
    </vehicle>
    <vehicle id="17007" depart="85.03">
        <route edges="278724707 -280242452 280242452 -278724707"/>
    </vehicle>
    <vehicle id="17115" depart="85.57">
        <route edges="279484950#2"/>
    </vehicle>
    <vehicle id="17139" depart="85.69">
        <route edges="282340560#2 282340560#3 282340560#4 4498809#8 4498809#9 4498809#10 5152341#0 5152341#1 5152341#2 282335130#0 282335130#1 970173985"/>
    </vehicle>
    <vehicle id="17178" depart="85.89">
        <route edges="965969561#0 965969561#1 727630525"/>
    </vehicle>
    <vehicle id="17394" depart="86.97">
        <route edges="4606527#1 4606527#2"/>
    </vehicle>
    <vehicle id="17417" depart="87.08">
        <route edges="282340560#4 4498809#8 4498809#9 4498809#10 889471502#0 889471502#1 889471502#2 889471502#3 889471502#4 889471502#5 9704153#0 9704153#1"/>
    </vehicle>
    <vehicle id="17479" depart="87.39">
        <route edges="282340560#2 282340560#3"/>
    </vehicle>
    <vehicle id="17993" depart="89.96">
        <route edges="288991219#1"/>
    </vehicle>
    <vehicle id="18119" depart="90.59">
        <route edges="654360297 654360301 654360299"/>
    </vehicle>
    <vehicle id="18180" depart="90.90">
        <route edges="278734736 279160694#0 279160694#1"/>
    </vehicle>
    <vehicle id="18188" depart="90.94">
        <route edges="4606527#3 4606527#4"/>
    </vehicle>
    <vehicle id="18189" depart="90.94">
        <route edges="178502495#1 178502495#2 244672377"/>
    </vehicle>
    <vehicle id="18224" depart="91.12">
        <route edges="240380145#0 240380145#1"/>
    </vehicle>
    <vehicle id="18251" depart="91.25">
        <route edges="965707624#1 4498809#0 4498809#1 4498809#2 4498809#3 4498809#4 4498809#5 4498809#6 4498809#7 4498809#8 4498809#9 4498809#10 889471502#0 889471502#1 889471502#2 889471502#3 889471502#4 889471502#5 9704153#0"/>
    </vehicle>
    <vehicle id="18279" depart="91.39">
        <route edges="4600722 236734220 222066032 240144753 516907677#0 516907677#1"/>
    </vehicle>
    <vehicle id="18293" depart="91.46">
        <route edges="4566432#2 4566432#3 279160687#0"/>
    </vehicle>
    <vehicle id="18347" depart="91.73">
        <route edges="279160691 815576208"/>
    </vehicle>
    <vehicle id="18374" depart="91.87">
        <route edges="279099870 964698526"/>
    </vehicle>
    <vehicle id="18391" depart="91.95">
        <route edges="-815576149 279564821"/>
    </vehicle>
    <vehicle id="18449" depart="92.24">
        <route edges="284047059#0 284047059#1 284047059#2"/>
    </vehicle>
    <vehicle id="18524" depart="92.62">
        <route edges="517467232#0 517467232#1 266432236"/>
    </vehicle>
    <vehicle id="18661" depart="93.30">
        <route edges="279484950#3"/>
    </vehicle>
    <vehicle id="18669" depart="93.34">
        <route edges="279406737#0 279406737#1"/>
    </vehicle>
    <vehicle id="18736" depart="93.68">
        <route edges="293037232#3"/>
    </vehicle>
    <vehicle id="18844" depart="94.22">
        <route edges="962025781#0 962025781#1"/>
    </vehicle>
    <vehicle id="18892" depart="94.46">
        <route edges="279402174#0 279402174#1"/>
    </vehicle>
    <vehicle id="19056" depart="95.28">
        <route edges="282340560#4 4498809#8 4498809#9 4498809#10 889471502#0 889471502#1 889471502#2 889471502#3 889471502#4 889471502#5 965707623#0 965707623#1 4498809#0 4498809#1 4498809#2 4498809#3 4498809#4 4498809#5 4930925 1015627203 227812175#0 227812175#1"/>
    </vehicle>
    <vehicle id="19113" depart="95.56">
        <route edges="285883731#1 285883731#2"/>
    </vehicle>
    <vehicle id="19114" depart="95.57">
        <route edges="516907677#0 516907677#1"/>
    </vehicle>
    <vehicle id="19268" depart="96.34">
        <route edges="658699910#1 658699910#2"/>
    </vehicle>
    <vehicle id="19347" depart="96.73">
        <route edges="93418913 4600753#0 4600753#1"/>
    </vehicle>
    <vehicle id="19444" depart="97.22">
        <route edges="288919988#0 288919988#1 654360301 654360300#0 654360300#1"/>
    </vehicle>
    <vehicle id="19541" depart="97.70">
        <route edges="107120215#4 107120215#5"/>
    </vehicle>
    <vehicle id="19649" depart="98.24">
        <route edges="253055132#0 253055132#1 279576110"/>
    </vehicle>
    <vehicle id="19739" depart="98.69">
        <route edges="279465758#1"/>
    </vehicle>
    <vehicle id="19821" depart="99.10">
        <route edges="970168110#0 970168110#1"/>
    </vehicle>
    <vehicle id="19897" depart="99.48">
        <route edges="282340560#0 282340560#1 282340560#2 282340560#3 282340560#4 4498809#8 4498809#9 4498809#10 5152341#0 5152341#1 5152341#2 282335130#0 282335130#1"/>
    </vehicle>
    <vehicle id="20019" depart="100.09">
        <route edges="965707624#0 965707624#1 4498809#0 4498809#1 4498809#2 4498809#3 4498809#4 4498809#5 4498809#6 4498809#7 4498809#8 5171177#0 5171177#1"/>
    </vehicle>
    <vehicle id="20072" depart="100.36">
        <route edges="188992752#0 279252530#1 279252530#2 244672377"/>
    </vehicle>
    <vehicle id="20119" depart="100.59">
        <route edges="658699910#1 658699910#2"/>
    </vehicle>
    <vehicle id="20124" depart="100.62">
        <route edges="256199405#1"/>
    </vehicle>
    <vehicle id="20263" depart="101.31">
        <route edges="227729617#0 227729617#1"/>
    </vehicle>
    <vehicle id="20378" depart="101.89">
        <route edges="4606527#1 4606527#2 4606527#3 4606527#4"/>
    </vehicle>
    <vehicle id="20539" depart="102.69">
        <route edges="-964698528 964698528"/>
    </vehicle>
    <vehicle id="20541" depart="102.70">
        <route edges="518694400#1 518694400#2"/>
    </vehicle>
    <vehicle id="20597" depart="102.98">
        <route edges="639081437 4566432#0 4566432#1 4566432#2 4566432#3 279160687#0"/>
    </vehicle>
    <vehicle id="20630" depart="103.15">
        <route edges="282340560#0 282340560#1 282340560#2 282340560#3 282340560#4 4498809#8 4498809#9 4498809#10 5152341#0 5152341#1 5152341#2 282335130#0 282335130#1"/>
    </vehicle>
    <vehicle id="20641" depart="103.20">
        <route edges="-278724457 278724457"/>
    </vehicle>
    <vehicle id="20711" depart="103.55">
        <route edges="965707624#1 4498809#0 4498809#1 4498809#2 4498809#3 4498809#4 4498809#5 4498809#6 4498809#7 4498809#8 4498809#9 4498809#10 5152341#0 5152341#1 5152341#2 282335130#0 282335130#1"/>
    </vehicle>
    <vehicle id="20754" depart="103.77">
        <route edges="4566432#1 4566432#2 4566432#3 279160687#0"/>
    </vehicle>
    <vehicle id="20814" depart="104.07">
        <route edges="220062664#5 220062664#6"/>
    </vehicle>
    <vehicle id="20899" depart="104.49">