<?xml version="1.0" encoding="UTF-8"?>

<!-- generated on 2025-04-09 18:56:17.574816 by randomTrips.py UNKNOWN
<configuration>
    <net-file value="net/bh.net.xml"/>
    <output-trip-file value="routes/bh.trips.xml"/>
    <route-file value="routes/bh.rou.xml"/>
    <validate value="True"/>
    <period value="0.005"/>
</configuration>
-->

<!-- generated on 2025-04-09 18:56:08 by Eclipse SUMO duarouter Version 1.18.0
<configuration xmlns:xsi="http://www.w3.org/2001/XMLSchema-instance" xsi:noNamespaceSchemaLocation="http://sumo.dlr.de/xsd/duarouterConfiguration.xsd">

    <input>
        <net-file value="net/bh.net.xml"/>
        <route-files value="routes/bh.trips.xml"/>
    </input>

    <output>
        <output-file value="routes/bh.trips.xml.tmp"/>
        <alternatives-output value="NUL"/>
        <write-trips value="true"/>
    </output>

    <time>
        <begin value="0.0"/>
        <end value="3600.0"/>
    </time>

    <report>
        <no-warnings value="true"/>
        <ignore-errors value="true"/>
        <no-step-log value="true"/>
    </report>

</configuration>
-->

<routes xmlns:xsi="http://www.w3.org/2001/XMLSchema-instance" xsi:noNamespaceSchemaLocation="http://sumo.dlr.de/xsd/routes_file.xsd">
    <trip id="13" depart="0.06" from="220062664#1" to="220062664#3"/>
    <trip id="127" depart="0.64" from="9704153#1" to="9704153#1"/>
    <trip id="256" depart="1.28" from="5171069#0" to="279160683#1"/>
    <trip id="520" depart="2.60" from="5152341#0" to="282335130#1"/>
    <trip id="540" depart="2.70" from="279574970#2" to="251870223#0"/>
    <trip id="755" depart="3.77" from="289660480#0" to="289660480#1"/>
    <trip id="777" depart="3.88" from="240144753" to="516907677#1"/>
    <trip id="792" depart="3.96" from="240380127#2" to="240380127#3"/>
    <trip id="837" depart="4.18" from="279161379#1" to="279160692"/>
    <trip id="1137" depart="5.68" from="970169189#0" to="970169189#2"/>
    <trip id="1176" depart="5.88" from="281149186#0" to="279564821"/>
    <trip id="1404" depart="7.02" from="654360301" to="278514575#0"/>
    <trip id="1421" depart="7.10" from="654360300#1" to="278514581#0"/>
    <trip id="1794" depart="8.97" from="970169189#0" to="970169189#2"/>
    <trip id="1934" depart="9.67" from="282340560#4" to="1015627203"/>
    <trip id="1974" depart="9.87" from="281149186#0" to="279564821"/>
    <trip id="2030" depart="10.15" from="279574970#0" to="4497968"/>
    <trip id="2168" depart="10.84" from="292774386#2" to="292774386#3"/>
    <trip id="2218" depart="11.09" from="965707624#0" to="282335130#0"/>
    <trip id="2284" depart="11.42" from="240380147#1" to="240380147#1"/>
    <trip id="2289" depart="11.45" from="278917072" to="279099869"/>
    <trip id="2333" depart="11.67" from="282340560#2" to="5152341#1"/>
    <trip id="2421" depart="12.11" from="970173986#1" to="4930925"/>
    <trip id="2493" depart="12.47" from="222066032" to="4600722"/>
    <trip id="2513" depart="12.57" from="278917072" to="-278917072"/>
    <trip id="2575" depart="12.88" from="639081437" to="4566432#1"/>
    <trip id="2649" depart="13.25" from="282340560#2" to="279160695"/>
    <trip id="2686" depart="13.43" from="282340560#0" to="9704153#1"/>
    <trip id="2939" depart="14.70" from="278912559" to="-278917072"/>
    <trip id="3124" depart="15.62" from="278519874" to="278514581#1"/>
    <trip id="3183" depart="15.92" from="240144753" to="222066032"/>
    <trip id="3256" depart="16.28" from="282340560#0" to="227812175#1"/>
    <trip id="3426" depart="17.13" from="253082656#1" to="253082656#2"/>
    <trip id="3431" depart="17.16" from="4527482#0" to="4527482#1"/>
    <trip id="3498" depart="17.49" from="4566432#0" to="4566432#2"/>
    <trip id="3659" depart="18.30" from="292774386#0" to="292774386#1"/>
    <trip id="3776" depart="18.88" from="9704153#1" to="9704153#2"/>
    <trip id="3786" depart="18.93" from="280761616" to="280761616"/>
    <trip id="3796" depart="18.98" from="654360300#2" to="278516386"/>
    <trip id="3900" depart="19.50" from="4567168#1" to="378662388#1"/>
    <trip id="4058" depart="20.29" from="965704699#1" to="5098727"/>
    <trip id="4059" depart="20.30" from="293037232#0" to="293037232#4"/>
    <trip id="4065" depart="20.33" from="220062664#0" to="220062664#0"/>
    <trip id="4096" depart="20.48" from="288919988#0" to="278514581#1"/>
    <trip id="4206" depart="21.03" from="970173986#0" to="5171177#0"/>
    <trip id="4294" depart="21.47" from="325789277" to="251870223#0"/>
    <trip id="4300" depart="21.50" from="107120215#2" to="107120215#2"/>
    <trip id="4319" depart="21.59" from="488882032" to="9704085"/>
    <trip id="4532" depart="22.66" from="664436111" to="965764449"/>
    <trip id="4943" depart="24.71" from="5171177#1" to="282335130#1"/>
    <trip id="4991" depart="24.95" from="4600722" to="222066032"/>
    <trip id="5097" depart="25.48" from="8095259#0" to="286637741#2"/>
    <trip id="5192" depart="25.96" from="-815576149" to="815576149"/>
    <trip id="5361" depart="26.80" from="240380127#0" to="240380127#3"/>
    <trip id="5604" depart="28.02" from="278912559" to="278916857"/>
    <trip id="5884" depart="29.42" from="293037232#1" to="293037232#2"/>
    <trip id="5947" depart="29.73" from="280413904#0" to="228094723"/>
    <trip id="6365" depart="31.82" from="240380149#1" to="240380149#3"/>
    <trip id="6421" depart="32.10" from="228094723" to="262762467"/>
    <trip id="6494" depart="32.47" from="253082656#0" to="251870223#1"/>
    <trip id="6659" depart="33.29" from="279574970#0" to="4497968"/>
    <trip id="6938" depart="34.69" from="-964698526" to="964698526"/>
    <trip id="6946" depart="34.73" from="178502495#2" to="178502495#2"/>
    <trip id="6970" depart="34.85" from="42005239#1" to="42005239#1"/>
    <trip id="7173" depart="35.86" from="5152341#2" to="282335130#1"/>
    <trip id="7392" depart="36.96" from="292774386#0" to="292774386#3"/>
    <trip id="7559" depart="37.80" from="965645856" to="970173985"/>
    <trip id="7622" depart="38.11" from="42005239#0" to="-42005239#0"/>
    <trip id="7683" depart="38.42" from="664436111" to="516907677#1"/>
    <trip id="7951" depart="39.76" from="5171071#1" to="5171071#1"/>
    <trip id="8067" depart="40.34" from="107120215#3" to="107120215#3"/>
    <trip id="8186" depart="40.93" from="4567168#1" to="378662388#1"/>
    <trip id="8304" depart="41.52" from="279348362#0" to="279348362#3"/>
    <trip id="8346" depart="41.73" from="285883731#0" to="285883731#2"/>
    <trip id="8456" depart="42.28" from="970173986#1" to="9704153#1"/>
    <trip id="8510" depart="42.55" from="970167016" to="292774386#0"/>
    <trip id="8556" depart="42.78" from="279465758#0" to="378662388#1"/>
    <trip id="8700" depart="43.50" from="654360301" to="654360300#0"/>
    <trip id="8985" depart="44.93" from="188992752#0" to="244672377"/>
    <trip id="9162" depart="45.81" from="5152341#2" to="5152341#2"/>
    <trip id="9264" depart="46.32" from="282340560#4" to="5171177#1"/>
    <trip id="9269" depart="46.35" from="279402174#1" to="286637741#2"/>
    <trip id="9358" depart="46.79" from="278931269#0" to="278931269#1"/>
    <trip id="9364" depart="46.82" from="280413904#1" to="497789340#2"/>
    <trip id="9389" depart="46.95" from="278519874" to="278514575#0"/>
    <trip id="9409" depart="47.05" from="280940883" to="286637741#1"/>
    <trip id="9449" depart="47.25" from="964691300" to="286637741#1"/>
    <trip id="9480" depart="47.40" from="4600722" to="516907677#0"/>
    <trip id="9560" depart="47.80" from="227815901#0" to="227815901#1"/>
    <trip id="9580" depart="47.90" from="5152341#1" to="970173985"/>
    <trip id="9669" depart="48.35" from="4930925" to="227812175#0"/>
    <trip id="9681" depart="48.41" from="-279564821" to="815576149"/>
    <trip id="9720" depart="48.60" from="-278917072" to="278916857"/>
    <trip id="9747" depart="48.74" from="288919988#1" to="278514581#0"/>
    <trip id="9784" depart="48.92" from="965707624#1" to="4930925"/>
    <trip id="9793" depart="48.97" from="970167016" to="292774386#0"/>
    <trip id="9896" depart="49.48" from="288919988#1" to="654360300#0"/>
    <trip id="9938" depart="49.69" from="963776267" to="222066032"/>
    <trip id="9940" depart="49.70" from="279574970#1" to="279574970#1"/>
    <trip id="10040" depart="50.20" from="279252530#0" to="244672377"/>
    <trip id="10167" depart="50.84" from="236734220" to="516907677#1"/>
    <trip id="10185" depart="50.93" from="256924423#1" to="256924423#1"/>
    <trip id="10277" depart="51.39" from="4566432#2" to="279160687#0"/>
    <trip id="10382" depart="51.91" from="240380127#2" to="240380127#3"/>
    <trip id="10387" depart="51.94" from="42005239#0" to="-42005239#1"/>
    <trip id="10402" depart="52.01" from="279465758#0" to="378662388#0"/>
    <trip id="10741" depart="53.71" from="4567163" to="227812175#0"/>
    <trip id="10803" depart="54.02" from="965704699#1" to="251808227"/>
    <trip id="10815" depart="54.08" from="5171177#0" to="282335130#1"/>
    <trip id="10961" depart="54.81" from="279163182" to="9704085"/>
    <trip id="11085" depart="55.43" from="279406737#1" to="279406737#2"/>
    <trip id="11561" depart="57.81" from="965683935" to="-965683935"/>
    <trip id="11626" depart="58.13" from="288919988#1" to="654360301"/>
    <trip id="11647" depart="58.24" from="5173216#1" to="5173216#2"/>
    <trip id="11686" depart="58.43" from="1200947407" to="279160694#1"/>
    <trip id="11744" depart="58.72" from="285883731#1" to="285883731#1"/>
    <trip id="11818" depart="59.09" from="282340560#1" to="227812175#0"/>
    <trip id="11860" depart="59.30" from="-278724457" to="278724456"/>
    <trip id="11894" depart="59.47" from="4566432#1" to="4566432#2"/>
    <trip id="12008" depart="60.04" from="253082656#1" to="279574970#0"/>
    <trip id="12025" depart="60.13" from="518112761#0" to="518112761#1"/>
    <trip id="12066" depart="60.33" from="639081437" to="279160692"/>
    <trip id="12218" depart="61.09" from="654360300#0" to="278514581#1"/>
    <trip id="12575" depart="62.88" from="965707624#0" to="5152341#2"/>
    <trip id="12645" depart="63.23" from="325789277" to="279574970#2"/>
    <trip id="12713" depart="63.57" from="4930925" to="227812175#0"/>
    <trip id="12776" depart="63.88" from="-964698528" to="-279099870"/>
    <trip id="13095" depart="65.48" from="28975065#1" to="28975065#1"/>
    <trip id="13139" depart="65.70" from="654360300#0" to="278514581#1"/>
    <trip id="13190" depart="65.95" from="279160694#0" to="279160694#1"/>
    <trip id="13263" depart="66.32" from="281149186#0" to="279564821"/>
    <trip id="13364" depart="66.82" from="970167016" to="292774386#3"/>
    <trip id="13428" depart="67.14" from="517467232#1" to="517467232#1"/>
    <trip id="13461" depart="67.31" from="178502495#1" to="244672377"/>
    <trip id="13594" depart="67.97" from="253082656#2" to="251870223#1"/>
    <trip id="13651" depart="68.26" from="107120215#4" to="107120215#4"/>
    <trip id="13704" depart="68.52" from="240380147#0" to="240380147#3"/>
    <trip id="13722" depart="68.61" from="281149186#0" to="279564821"/>
    <trip id="13858" depart="69.29" from="970173986#1" to="5171177#0"/>
    <trip id="13901" depart="69.51" from="29192744#0" to="29192744#2"/>
    <trip id="14077" depart="70.39" from="279160695" to="970173985"/>
    <trip id="14187" depart="70.94" from="282340560#1" to="282340560#3"/>
    <trip id="14386" depart="71.93" from="240380149#0" to="240380149#4"/>
    <trip id="14415" depart="72.08" from="178502495#2" to="244672377"/>
    <trip id="14439" depart="72.20" from="278429106#2" to="278429106#2"/>
    <trip id="14578" depart="72.89" from="279484950#2" to="279484950#4"/>
    <trip id="14651" depart="73.26" from="29192744#0" to="29192744#2"/>
    <trip id="14653" depart="73.27" from="-283261788" to="283261788"/>
    <trip id="14720" depart="73.60" from="240144753" to="516907677#0"/>
    <trip id="14753" depart="73.77" from="278429106#2" to="278429106#3"/>
    <trip id="15010" depart="75.05" from="292774386#1" to="292774386#3"/>
    <trip id="15020" depart="75.10" from="240380149#2" to="240380149#5"/>
    <trip id="15069" depart="75.35" from="9677552" to="235818355"/>
    <trip id="15209" depart="76.05" from="240380149#3" to="240380149#3"/>
    <trip id="15228" depart="76.14" from="240380149#2" to="240380149#2"/>
    <trip id="15233" depart="76.17" from="936884775#1" to="936884775#1"/>
    <trip id="15355" depart="76.78" from="107120215#0" to="107120215#1"/>
    <trip id="15481" depart="77.41" from="4566432#2" to="279160691"/>
    <trip id="15534" depart="77.67" from="279406737#0" to="279406737#2"/>
    <trip id="15630" depart="78.15" from="964691300" to="286637741#2"/>
    <trip id="15881" depart="79.41" from="654360300#2" to="278514581#0"/>
    <trip id="15896" depart="79.48" from="107120215#3" to="107120215#5"/>
    <trip id="15931" depart="79.66" from="279402174#0" to="286637741#1"/>
    <trip id="15958" depart="79.79" from="93418913" to="251992220"/>
    <trip id="16077" depart="80.38" from="5171071#0" to="515874486"/>
    <trip id="16196" depart="80.98" from="279252530#0" to="279252530#2"/>
    <trip id="16208" depart="81.04" from="280413904#0" to="262762467"/>
    <trip id="16286" depart="81.43" from="5173525#0" to="5173525#1"/>
    <trip id="16343" depart="81.71" from="378662391#0" to="378662391#0"/>
    <trip id="16475" depart="82.37" from="279676721#0" to="279676721#0"/>
    <trip id="16496" depart="82.48" from="107120215#0" to="107120215#3"/>
    <trip id="16547" depart="82.73" from="639081437" to="4566432#3"/>
    <trip id="16577" depart="82.88" from="222066032" to="222066032"/>
    <trip id="16626" depart="83.13" from="5171177#1" to="5171177#1"/>
    <trip id="16680" depart="83.40" from="279484950#2" to="279484950#3"/>
    <trip id="16705" depart="83.52" from="5173216#0" to="5173216#2"/>
    <trip id="16860" depart="84.30" from="-278916857" to="-278917072"/>
    <trip id="16921" depart="84.60" from="279574970#0" to="251870223#1"/>
    <trip id="16983" depart="84.91" from="284021502#2" to="284021502#3"/>
    <trip id="17006" depart="85.03" from="253082656#2" to="251870223#1"/>
    <trip id="17007" depart="85.03" from="278724707" to="-278724707"/>
    <trip id="17115" depart="85.57" from="279484950#2" to="279484950#2"/>
    <trip id="17139" depart="85.69" from="282340560#2" to="970173985"/>
    <trip id="17178" depart="85.89" from="965969561#0" to="727630525"/>
    <trip id="17394" depart="86.97" from="4606527#1" to="4606527#2"/>
    <trip id="17417" depart="87.08" from="282340560#4" to="9704153#1"/>
    <trip id="17479" depart="87.39" from="282340560#2" to="282340560#3"/>
    <trip id="17993" depart="89.96" from="288991219#1" to="288991219#1"/>
    <trip id="18119" depart="90.59" from="654360297" to="654360299"/>
    <trip id="18180" depart="90.90" from="278734736" to="279160694#1"/>
    <trip id="18188" depart="90.94" from="4606527#3" to="4606527#4"/>
    <trip id="18189" depart="90.94" from="178502495#1" to="244672377"/>
    <trip id="18224" depart="91.12" from="240380145#0" to="240380145#1"/>
    <trip id="18251" depart="91.25" from="965707624#1" to="9704153#0"/>
    <trip id="18279" depart="91.39" from="4600722" to="516907677#1"/>
    <trip id="18293" depart="91.46" from="4566432#2" to="279160687#0"/>
    <trip id="18347" depart="91.73" from="279160691" to="815576208"/>
    <trip id="18374" depart="91.87" from="279099870" to="964698526"/>
    <trip id="18391" depart="91.95" from="-815576149" to="279564821"/>
    <trip id="18449" depart="92.24" from="284047059#0" to="284047059#2"/>
    <trip id="18524" depart="92.62" from="517467232#0" to="266432236"/>
    <trip id="18661" depart="93.30" from="279484950#3" to="279484950#3"/>
    <trip id="18669" depart="93.34" from="279406737#0" to="279406737#1"/>
    <trip id="18736" depart="93.68" from="293037232#3" to="293037232#3"/>
    <trip id="18844" depart="94.22" from="962025781#0" to="962025781#1"/>
    <trip id="18892" depart="94.46" from="279402174#0" to="279402174#1"/>
    <trip id="19056" depart="95.28" from="282340560#4" to="227812175#1"/>
    <trip id="19113" depart="95.56" from="285883731#1" to="285883731#2"/>
    <trip id="19114" depart="95.57" from="516907677#0" to="516907677#1"/>
    <trip id="19268" depart="96.34" from="658699910#1" to="658699910#2"/>
    <trip id="19347" depart="96.73" from="93418913" to="4600753#1"/>
    <trip id="19444" depart="97.22" from="288919988#0" to="654360300#1"/>
    <trip id="19541" depart="97.70" from="107120215#4" to="107120215#5"/>
    <trip id="19649" depart="98.24" from="253055132#0" to="279576110"/>
    <trip id="19739" depart="98.69" from="279465758#1" to="279465758#1"/>
    <trip id="19821" depart="99.10" from="970168110#0" to="970168110#1"/>
    <trip id="19897" depart="99.48" from="282340560#0" to="282335130#1"/>
    <trip id="20019" depart="100.09" from="965707624#0" to="5171177#1"/>
    <trip id="20072" depart="100.36" from="188992752#0" to="244672377"/>
    <trip id="20119" depart="100.59" from="658699910#1" to="658699910#2"/>
    <trip id="20124" depart="100.62" from="256199405#1" to="256199405#1"/>
    <trip id="20263" depart="101.31" from="227729617#0" to="227729617#1"/>
    <trip id="20378" depart="101.89" from="4606527#1" to="4606527#4"/>
    <trip id="20539" depart="102.69" from="-964698528" to="964698528"/>
    <trip id="20541" depart="102.70" from="518694400#1" to="518694400#2"/>
    <trip id="20597" depart="102.98" from="639081437" to="279160687#0"/>
    <trip id="20630" depart="103.15" from="282340560#0" to="282335130#1"/>
    <trip id="20641" depart="103.20" from="-278724457" to="278724457"/>
    <trip id="20711" depart="103.55" from="965707624#1" to="282335130#1"/>
    <trip id="20754" depart="103.77" from="4566432#1" to="279160687#0"/>
    <trip id="20814" depart="104.07" from="220062664#5" to="220062664#6"/>
    <trip id="20899" depart="104.49" from="278429105#0" to="278429105#1"/>
    <trip id="21133" depart="105.66" from="282340560#1" to="227812175#1"/>
    <trip id="21259" depart="106.29" from="664436111" to="238180036"/>
    <trip id="21502" depart="107.51" from="654360300#0" to="654360300#2"/>
    <trip id="21566" depart="107.83" from="4600753#1" to="945120649"/>
    <trip id="21730" depart="108.65" from="959601037" to="292774386#0"/>
    <trip id="21777" depart="108.88" from="279160687#0" to="279160687#1"/>
    <trip id="21927" depart="109.63" from="293037232#0" to="293037232#4"/>
    <trip id="21955" depart="109.77" from="5171071#1" to="5171071#1"/>
    <trip id="22045" depart="110.22" from="4566432#0" to="279160691"/>
    <trip id="22073" depart="110.36" from="654360300#0" to="278514581#0"/>
    <trip id="22242" depart="111.21" from="965683935" to="-279099870"/>
    <trip id="22261" depart="111.30" from="5171066" to="964420431"/>
    <trip id="22320" depart="111.60" from="114413614#0" to="114413614#1"/>
    <trip id="22343" depart="111.71" from="279574970#2" to="4497968"/>
    <trip id="22437" depart="112.18" from="236734220" to="240144753"/>
    <trip id="22446" depart="112.23" from="279574970#2" to="251870223#1"/>
    <trip id="22502" depart="112.51" from="4566432#3" to="279160692"/>
    <trip id="22600" depart="113.00" from="278362041#1" to="278362041#1"/>
    <trip id="22654" depart="113.27" from="280413904#0" to="497789340#2"/>
    <trip id="22677" depart="113.38" from="970169189#0" to="970169189#1"/>
    <trip id="22689" depart="113.44" from="285883731#2" to="285883731#3"/>
    <trip id="22717" depart="113.58" from="5173525#1" to="5173525#1"/>
    <trip id="22750" depart="113.75" from="282340560#4" to="282335130#0"/>
    <trip id="22801" depart="114.00" from="289660480#1" to="289660480#1"/>
    <trip id="22803" depart="114.01" from="-278724456" to="-9704067"/>
    <trip id="22900" depart="114.50" from="4600753#1" to="251992220"/>
    <trip id="22904" depart="114.52" from="965645856" to="970173985"/>
    <trip id="22924" depart="114.62" from="228094723" to="497789340#1"/>
    <trip id="22928" depart="114.64" from="654360300#2" to="278514575#0"/>
    <trip id="22976" depart="114.88" from="4567163" to="279160694#1"/>
    <trip id="22980" depart="114.90" from="282340560#3" to="1015627203"/>
    <trip id="23035" depart="115.17" from="284019466#1" to="284019466#1"/>
    <trip id="23228" depart="116.14" from="4566432#1" to="4566432#1"/>
    <trip id="23527" depart="117.63" from="5171177#0" to="282335130#0"/>
    <trip id="23533" depart="117.66" from="253082656#0" to="4497968"/>
    <trip id="23633" depart="118.16" from="253082656#0" to="279574970#2"/>
    <trip id="23758" depart="118.79" from="8095259#0" to="8095259#1"/>
    <trip id="23786" depart="118.93" from="5171069#1" to="279160683#1"/>
    <trip id="23798" depart="118.99" from="188992752#0" to="279252530#2"/>
    <trip id="23842" depart="119.21" from="965707624#1" to="5171177#0"/>
    <trip id="23965" depart="119.82" from="278917072" to="-278917072"/>
    <trip id="23999" depart="119.99" from="279402174#1" to="286637741#2"/>
    <trip id="24062" depart="120.31" from="4567163" to="964420431"/>
    <trip id="24273" depart="121.36" from="4567168#1" to="378662391#0"/>
    <trip id="24410" depart="122.05" from="4567163" to="964420431"/>
    <trip id="24469" depart="122.34" from="965707624#1" to="9704153#0"/>
    <trip id="24470" depart="122.35" from="289660480#1" to="289660480#1"/>
    <trip id="24700" depart="123.50" from="654360301" to="278514575#1"/>
    <trip id="24721" depart="123.60" from="9704153#0" to="9704153#2"/>
    <trip id="24760" depart="123.80" from="965707624#1" to="282335130#0"/>
    <trip id="25109" depart="125.54" from="278292894#0" to="278292894#1"/>
    <trip id="25119" depart="125.59" from="282340560#2" to="282340560#2"/>
    <trip id="25142" depart="125.71" from="107120215#4" to="107120215#4"/>
    <trip id="25144" depart="125.72" from="279484950#0" to="279484950#4"/>
    <trip id="25271" depart="126.35" from="42005239#1" to="283261788"/>
    <trip id="25418" depart="127.09" from="279252530#0" to="279252530#2"/>
    <trip id="25444" depart="127.22" from="280413904#0" to="262762467"/>
    <trip id="25578" depart="127.89" from="279161379#0" to="279161379#1"/>
    <trip id="25707" depart="128.53" from="282340560#3" to="282335130#0"/>
    <trip id="25795" depart="128.97" from="28975065#1" to="278725054"/>
    <trip id="25865" depart="129.32" from="240144753" to="236734220"/>
    <trip id="26170" depart="130.85" from="645396432" to="279466903"/>
    <trip id="26228" depart="131.14" from="965969561#1" to="727630526"/>
    <trip id="26338" depart="131.69" from="279160680" to="279160687#1"/>
    <trip id="26422" depart="132.11" from="279160680" to="815576208"/>
    <trip id="26502" depart="132.51" from="9704067" to="278724456"/>
    <trip id="26639" depart="133.19" from="279402174#0" to="279402174#1"/>
    <trip id="26641" depart="133.20" from="279574970#1" to="4497968"/>
    <trip id="26852" depart="134.26" from="279160694#0" to="279160694#1"/>
    <trip id="26860" depart="134.30" from="736795114#0" to="736795114#1"/>
    <trip id="26926" depart="134.63" from="654360301" to="654360300#1"/>
    <trip id="26933" depart="134.66" from="9704153#1" to="9704153#2"/>
    <trip id="27097" depart="135.48" from="293037232#0" to="293037232#4"/>
    <trip id="27157" depart="135.78" from="285883731#1" to="285883731#1"/>
    <trip id="27195" depart="135.97" from="222066032" to="222066032"/>
    <trip id="27319" depart="136.59" from="244672371#1" to="244672371#1"/>
    <trip id="27397" depart="136.98" from="4566432#0" to="815576208"/>
    <trip id="27706" depart="138.53" from="4567168#1" to="378662391#1"/>
    <trip id="27738" depart="138.69" from="518694400#0" to="518694400#2"/>
    <trip id="27866" depart="139.33" from="815547609#0" to="815547609#1"/>
    <trip id="27913" depart="139.56" from="279252530#0" to="279252530#2"/>
    <trip id="27959" depart="139.79" from="279160694#0" to="227812175#1"/>
    <trip id="28038" depart="140.19" from="29192744#0" to="29192744#2"/>
    <trip id="28072" depart="140.36" from="282340560#1" to="282340560#2"/>
    <trip id="28130" depart="140.65" from="288919988#0" to="654360300#0"/>
    <trip id="28140" depart="140.70" from="256199405#2" to="256199405#2"/>
    <trip id="28305" depart="141.52" from="4566432#0" to="279160691"/>
    <trip id="28325" depart="141.62" from="4567168#1" to="378662388#1"/>
    <trip id="28335" depart="141.67" from="-279564821" to="279564821"/>
    <trip id="28343" depart="141.71" from="518112761#1" to="518112761#1"/>
    <trip id="28347" depart="141.73" from="285883731#0" to="285883731#1"/>
    <trip id="28388" depart="141.94" from="1015627203" to="1015627203"/>
    <trip id="28436" depart="142.18" from="518112761#0" to="518112761#2"/>
    <trip id="28458" depart="142.29" from="107120215#1" to="107120215#1"/>
    <trip id="28608" depart="143.04" from="965707624#0" to="282335130#0"/>
    <trip id="28617" depart="143.08" from="278917072" to="278917072"/>
    <trip id="28674" depart="143.37" from="4567163" to="227812175#0"/>
    <trip id="28967" depart="144.83" from="279252530#1" to="279252530#2"/>
    <trip id="29123" depart="145.61" from="279465758#0" to="378662391#0"/>
    <trip id="29150" depart="145.75" from="284019466#0" to="284019466#1"/>
    <trip id="29282" depart="146.41" from="-42005239#1" to="42005239#1"/>
    <trip id="29466" depart="147.33" from="278429105#2" to="278429105#2"/>
    <trip id="29607" depart="148.03" from="965969561#1" to="288406249"/>
    <trip id="29641" depart="148.20" from="107120215#2" to="107120215#3"/>
    <trip id="29885" depart="149.42" from="-964698526" to="-965683935"/>
    <trip id="29979" depart="149.89" from="4566432#0" to="4566432#0"/>
    <trip id="30024" depart="150.12" from="965704699#0" to="251808227"/>
    <trip id="30075" depart="150.37" from="4606527#2" to="4606527#2"/>
    <trip id="30187" depart="150.93" from="8095259#0" to="8095259#1"/>
    <trip id="30243" depart="151.21" from="965707624#1" to="9704153#2"/>
    <trip id="30324" depart="151.62" from="279160687#0" to="279160687#1"/>
    <trip id="30341" depart="151.70" from="1015627203" to="227812175#1"/>
    <trip id="30373" depart="151.86" from="222066032" to="965764449"/>
    <trip id="30407" depart="152.03" from="220062664#1" to="220062664#4"/>
    <trip id="30452" depart="152.26" from="970173986#0" to="9704153#0"/>
    <trip id="30457" depart="152.28" from="282340560#2" to="9704153#2"/>
    <trip id="30558" depart="152.79" from="280242452" to="-278724707"/>
    <trip id="30598" depart="152.99" from="251870223#0" to="251870223#1"/>
    <trip id="30717" depart="153.58" from="114413610#0" to="114413610#1"/>
    <trip id="30739" depart="153.69" from="282340560#0" to="9704153#2"/>
    <trip id="30798" depart="153.99" from="286637741#0" to="286637741#0"/>
    <trip id="30829" depart="154.14" from="220062664#2" to="220062664#4"/>
    <trip id="30841" depart="154.20" from="265652508#0" to="265652508#1"/>
    <trip id="30953" depart="154.76" from="970167016" to="292774386#3"/>
    <trip id="30984" depart="154.92" from="253082656#0" to="279574970#0"/>
    <trip id="31098" depart="155.49" from="220062664#2" to="220062664#3"/>
    <trip id="31126" depart="155.63" from="253082656#1" to="279574970#2"/>
    <trip id="31263" depart="156.31" from="279348362#0" to="279348362#3"/>
    <trip id="31267" depart="156.33" from="970173552#0" to="970173552#1"/>
    <trip id="31333" depart="156.66" from="5173525#0" to="5173525#1"/>
    <trip id="31349" depart="156.74" from="220062664#5" to="220062664#6"/>
    <trip id="31354" depart="156.77" from="970167016" to="292774386#3"/>
    <trip id="31419" depart="157.09" from="279574970#0" to="251870223#1"/>
    <trip id="31544" depart="157.72" from="28975065#0" to="28975065#1"/>
    <trip id="31721" depart="158.60" from="325789277" to="279574970#2"/>
    <trip id="31744" depart="158.72" from="4606527#3" to="4606527#4"/>
    <trip id="31767" depart="158.83" from="497789340#0" to="497789340#1"/>
    <trip id="31772" depart="158.86" from="178502495#2" to="178502495#2"/>
    <trip id="31818" depart="159.09" from="5152341#0" to="5152341#0"/>
    <trip id="31962" depart="159.81" from="281149186#1" to="558250649#0"/>
    <trip id="32082" depart="160.41" from="8097828#0" to="8097828#1"/>
    <trip id="32114" depart="160.57" from="279160694#0" to="227812175#1"/>
    <trip id="32126" depart="160.63" from="970166461#0" to="970166461#1"/>
    <trip id="32172" depart="160.86" from="945120644" to="251992220"/>
    <trip id="32489" depart="162.44" from="654360300#1" to="654360300#2"/>
    <trip id="32505" depart="162.52" from="654360300#2" to="278516386"/>
    <trip id="32620" depart="163.10" from="282340560#2" to="282340560#2"/>
    <trip id="32757" depart="163.78" from="279484950#1" to="279484950#3"/>
    <trip id="32809" depart="164.04" from="654360300#1" to="278516386"/>
    <trip id="32919" depart="164.59" from="253055132#1" to="279576110"/>
    <trip id="33033" depart="165.16" from="288922860#0" to="288922860#0"/>
    <trip id="33058" depart="165.29" from="1222456205#1" to="1222456205#1"/>
    <trip id="33093" depart="165.46" from="279484950#1" to="279484950#2"/>
    <trip id="33164" depart="165.82" from="654360297" to="278514575#0"/>
    <trip id="33215" depart="166.07" from="293037232#1" to="293037232#3"/>
    <trip id="33403" depart="167.01" from="970173986#1" to="9704153#0"/>
    <trip id="33429" depart="167.14" from="285883731#1" to="285883731#3"/>
    <trip id="33482" depart="167.41" from="279465758#1" to="378662391#1"/>
    <trip id="33496" depart="167.48" from="282340560#1" to="282335130#1"/>
    <trip id="33597" depart="167.98" from="-278724456" to="-9704067"/>
    <trip id="33603" depart="168.01" from="-283261788" to="42005239#1"/>
    <trip id="33624" depart="168.12" from="282340560#1" to="5152341#2"/>
    <trip id="33786" depart="168.93" from="281149186#0" to="558250649#1"/>
    <trip id="33909" depart="169.54" from="282340560#2" to="5152341#1"/>