<?xml version="1.0" encoding="UTF-8"?>

<!-- generated on 2025-04-10 00:10:36.467725 by randomTrips.py UNKNOWN
<configuration>
    <net-file value="../net/santa_tereza.net.xml"/>
    <output-trip-file value="../routes/santa_tereza.trips.xml"/>
    <route-file value="../routes/santa_tereza.rou.xml"/>
    <validate value="True"/>
    <end value="1000.0"/>
    <period value="1.0"/>
    <binomial value="10"/>
</configuration>
-->

<!-- generated on 2025-04-10 00:10:36 by Eclipse SUMO duarouter Version 1.18.0
<configuration xmlns:xsi="http://www.w3.org/2001/XMLSchema-instance" xsi:noNamespaceSchemaLocation="http://sumo.dlr.de/xsd/duarouterConfiguration.xsd">

    <input>
        <net-file value="../net/santa_tereza.net.xml"/>
        <route-files value="../routes/santa_tereza.trips.xml"/>
    </input>

    <output>
        <output-file value="../routes/santa_tereza.rou.xml"/>
        <alternatives-output value="NUL"/>
    </output>

    <time>
        <begin value="0.0"/>
        <end value="1000.0"/>
    </time>

    <report>
        <no-warnings value="true"/>
        <ignore-errors value="true"/>
        <no-step-log value="true"/>
    </report>

</configuration>
-->

<routes xmlns:xsi="http://www.w3.org/2001/XMLSchema-instance" xsi:noNamespaceSchemaLocation="http://sumo.dlr.de/xsd/routes_file.xsd">
    <vehicle id="0" depart="0.00">
        <route edges="-8106581#0 -4695356#7 8106577 299672708 299672709#1 299672709#2 299672709#3 -8106559 4543344#10 4543344#11 59612433#2 8098291 289666167#0 8098300#1 8098300#2 8098300#3 -8098300#3"/>
    </vehicle>
    <vehicle id="1" depart="0.00">
        <route edges="10600963#1 -885837724 10600962 -683261388 644198806#1 10597965#0 10597965#1 -10600955#1 -10600955#0 518693510#0 518693510#1 518693510#2 964092902 27885682#7 27885682#8 518694391 518694393 234795225 518694392 9532163#0 885428104 253055173 136555995#0 136555995#1 136555995#2 -10597956#2"/>
    </vehicle>
    <vehicle id="2" depart="0.00">
        <route edges="-521581073#0 -10597949#1 -9532170#0 -883666865#1 -883666865#0 -290471790#3 -290471790#2 -290471790#1 -290471790#0 -253055134 881931037 253055187#0 253055187#1 1026251689 253055186#0 253055186#1 884592631 8106572 1007845794 218521175#0 218521175#1 218521175#2 218521175#3 218521175#4 4515353#2 4515353#3 4515353#4 4515353#5 299672709#0"/>
    </vehicle>
    <vehicle id="3" depart="1.00">
        <route edges="645337132 -299672706#2 -299672706#1 -299672706#0 4695355#4 299672710#0 299672710#1 299672710#2 299672710#3 8106570 -4515353#4 -8106586#2 -8106586#1 -8106586#0 4543344#3"/>
    </vehicle>
    <vehicle id="4" depart="1.00">
        <route edges="-134997252#4 -134997252#3 -134997252#2 107918574#0 107918574#1 8106567#3 8106567#4 8106567#5"/>
    </vehicle>
    <vehicle id="5" depart="3.00">
        <route edges="-8098300#4 -8098300#3 -8098300#2 -8098300#1 -8098300#0 121429654 289666173 289666159#1 289666156#0 289666156#1 289666156#2 289666156#3 289666156#4 289666156#5 289666156#6 289666156#7 -5109322 8106586#0 8106589#0 -8106587#0"/>
    </vehicle>
    <vehicle id="6" depart="3.00">
        <route edges="-8098301#3 8098301#3 970176923 887402405 970176924 964415658 964415659 8106557 289666165#0 289666165#1 4543344#9 8106559 299672709#4 8106560#0 4695355#2 4695355#3 299672706#0 299672706#1 299672706#2 299672706#3 -134997252#4 -134997252#3"/>
    </vehicle>
    <vehicle id="7" depart="5.00">
        <route edges="-9532158#1 9532158#1 9532158#2 9532165#0 9532165#1 -883666865#0 -290471790#3 -290471790#2 -290471790#1 -290471790#0 -253055134 881931037 253055187#0 253055187#1 1026251689 253055186#0 253055186#1 884592631 8106572 1007845794 218521175#0 8106579#1 8106579#2 -8106579#2"/>
    </vehicle>
    <vehicle id="8" depart="7.00">
        <route edges="-10600957#2 -10600957#1 1341791906 668392316#0 668392316#1 27885682#2 27885682#3 27885682#4 27885682#5 27885682#6 27885682#7 27885682#8 518694391 518694393 234795225 518694392 9532163#0 885428104 253055173 136555995#0 136555995#1 136555995#2 253055166#0 -136554478#4"/>
    </vehicle>
    <vehicle id="9" depart="7.00">
        <route edges="10597954#0 10597954#1 -9532170#1 -9532170#0 -883666865#1 -883666865#0 -290471790#3 -290471790#2 -290471790#1 -290471790#0 -253055134 881931037 253055187#0 253055187#1 1026251689 253055144 1026251912 518693513 518693512#0 518693512#1 518693512#2 518693512#3 518693512#4 518698880 518698883#0 518698883#1 518698883#2 518698883#3 518698883#4 518698882 253055143#0 427918956 -966312980 -10600963#0 234005798 9874683#0 9874683#1"/>
    </vehicle>
    <vehicle id="10" depart="8.00">
        <route edges="4695355#4 4695355#5 4695355#6 8106578#0 8106578#1 -1007845794 -8106572 -884592631 253055188#0 253055188#1 964405953 518693513 518693512#0 518693512#1 518693512#2 518693512#3 518693512#4 518698880 518698883#0 518698883#1 518698883#2 518698883#3 518698883#4 518698882 253055143#0 427918956"/>
    </vehicle>
    <vehicle id="11" depart="10.00">
        <route edges="-9532165#1 -9532163#1 885428104 253055173 10597949#0 10597949#1 -10597949#1"/>
    </vehicle>
    <vehicle id="12" depart="10.00">
        <route edges="8106576#3 -8106583#2 -8106583#1 -8106583#0 107914741#3 4515353#0 4515353#1 -218521175#4 -218521175#3 -218521175#2 -218521175#1 -218521175#0 -1007845794 -8106572 -884592631 253055188#0 253055188#1 10600953#0 10600953#1 280302520#4 280302520#5 280302520#6 280302520#7 1026252225#0 9532163#0 9532163#1 9532163#2"/>
    </vehicle>
    <vehicle id="13" depart="10.00">
        <route edges="121429654 289666173 289666159#1 289666156#0 289666156#1 289666156#2 289666156#3 289666156#4 289666156#5 289666156#6 289666156#7 -5109322 8106586#0 8106589#0 8106589#1 8106589#2 107914741#1 107914741#2 8106583#0 8106583#1 -107913067#3"/>
    </vehicle>
    <vehicle id="15" depart="13.00">
        <route edges="-8106560#2 -8106560#1 -8106560#0 299672709#5 289563850 289563851#0 107919321#1 289666165#2 314943015#1"/>
    </vehicle>
    <vehicle id="16" depart="14.00">
        <route edges="107459586 299672710#3 -8106577 4695356#7 8106581#0 8106581#1 8106581#2 107913067#2"/>
    </vehicle>
    <vehicle id="17" depart="14.00">
        <route edges="10597967#7 427918954 280302520#1 280302520#2 280302520#3 280302520#4 280302520#5 280302520#6 280302520#7 -253055134 881931037 253055187#0 253055187#1 1026251689 253055186#0 253055186#1 884592631 8106572 1007845794"/>
    </vehicle>
    <vehicle id="18" depart="16.00">
        <route edges="9874694 10600957#0 1341791906 668392316#0 668392316#1 27885682#2 27885682#3 27885682#4 27885682#5 27885682#6 27885682#7 27885682#8 518694391 518694393 234795225 518694392 9532163#0 885428104 -290471790#3 -290471790#2 -290471790#1 -290471790#0 -253055134 881931037 253055187#0 253055187#1 1026251689 253055186#0 253055186#1 884592631 8106572 1007845794 218521175#0 218521175#1 218521175#2 218521175#3 218521175#4 4515353#2 4515353#3 4515353#4 4515353#5 299672709#0 299672709#1 299672709#2 299672709#3 299672709#4 8106560#0 8106560#1"/>
    </vehicle>
    <vehicle id="19" depart="16.00">
        <route edges="10597945 10597954#4 -10597937#3 253055156#2 253055156#3 10597941#3 280302520#5 280302520#6 280302520#7 -253055134 881931037 253055135#0 253055135#1 116648333 518694391 518694393 518694394#0 518694394#1 518694394#2 518694395 518694396#0 518694396#1 196374467#0 -9532132#2 -9532132#1 -9532132#0 196374470#1 966570835"/>
    </vehicle>
    <vehicle id="20" depart="18.00">
        <route edges="27885682#2 27885682#3 27885682#4 27885682#5 27885682#6 27885682#7 27885682#8 518694391 518694393 518694394#0 518694394#1 518694394#2 518694395 518694396#0 518694396#1 196374467#0 -9532132#2 -9532132#1 -9532132#0 196374470#1 966570835 196374471"/>
    </vehicle>
    <vehicle id="21" depart="18.00">
        <route edges="-4695356#1 4695356#1 4695356#2 4695355#6 8106578#0 8106578#1 -1007845794 -8106572 -884592631 253055188#0 253055188#1 10600953#0 10600953#1 280302520#4 280302520#5 280302520#6"/>
    </vehicle>
    <vehicle id="22" depart="20.00">
        <route edges="107918574#1 8106567#3 -884984290 4695355#3 4695355#4 4695355#5 4695355#6 8106578#0 8106578#1 -1007845794 -8106572 -884592631 253055188#0 253055188#1 964405953 518693513 518693512#0 518693512#1 518693512#2 518693512#3 518693512#4 518698880 518698883#0 518698883#1 518698883#2 518698883#3 518698883#4 518698882 253055143#0 253055143#1 10600967 -10600957#1 -10600957#0 9874688#0 9874688#1"/>
    </vehicle>
    <vehicle id="23" depart="21.00">
        <route edges="-683261387#0 10597965#0 10597965#1 -10600955#1 -10600955#0 518693510#0 518693510#1 518693510#2 964092902 27885682#7 27885682#8 518694391 518694393 234795225 518694392 9532163#0 885428104 -290471790#3 -290471790#2 -290471790#1 -290471790#0 -253055134 881931037 253055187#0 253055187#1 1026251689 253055186#0 253055186#1 884592631 8106572 1007845794 218521175#0 -8106579#0"/>
    </vehicle>
    <vehicle id="24" depart="22.00">
        <route edges="74503246 -74503246 10600957#0 1341791906 668392316#0 668392316#1 27885682#2 27885682#3 27885682#4 27885682#5 27885682#6 27885682#7 27885682#8 518694391 518694393 234795225 518694392 9532163#0 9532163#1 9532163#2 116650774#1 -883666865#1"/>
    </vehicle>
    <vehicle id="25" depart="23.00">
        <route edges="10600965#1 -427918941#1 -427918941#0 10600963#0 966312980 10600962 -683261388 644198806#1 10597965#0 10597965#1 -10600955#1 -10600955#0 518693510#0 518693510#1 518693510#2 964092902 27885682#7 27885682#8 518694391 518694393 234795225 518694392 9532163#0 885428104 -290471790#3 -290471790#2 -290471790#1 -290471790#0 -253055134 881931037 253055187#0 253055187#1 1026251689 253055186#0 253055186#1 884592631 8106572 1007845794 218521175#0 218521175#1 218521175#2 8106581#1 8106581#2 -8106581#2"/>
    </vehicle>
    <vehicle id="26" depart="23.00">
        <route edges="518694395 518694396#0 518694396#1 1026252256#0 1026252256#1 1026252256#2 1026252256#3 1026252256#4 253055145#0 253055145#1 253055145#2 253055145#3 253055145#4 881931038 253055134 290471790#0 290471790#1"/>
    </vehicle>
    <vehicle id="27" depart="24.00">
        <route edges="-107914744 107914744 -107913067#4 -107913067#3 -107913067#2 -107913067#1 8106580#3"/>
    </vehicle>
    <vehicle id="28" depart="26.00">
        <route edges="5109322 -5109322 8106586#0 8106586#1 8106586#2 -4515353#3 -4515353#2 -218521175#4 -218521175#3 -218521175#2 -218521175#1 -218521175#0 -1007845794 -8106572 -884592631 253055188#0 253055188#1 964405953 518693513 518693512#0 518693512#1 518693512#2 518693512#3 518693512#4 518698880 518698883#0 518698883#1 518698883#2 518698883#3 518698883#4 518698882 253055143#0 427918956 -966312980"/>
    </vehicle>
    <vehicle id="29" depart="28.00">
        <route edges="-4695356#7 4695356#7 8106581#0 -218521175#2 -218521175#1 -218521175#0 -1007845794 -8106572 -884592631 253055188#0 253055188#1 10600953#0 10600953#1 253055153 -280302516#2 136554478#0 136554478#1 136554478#2 136554478#3 136554478#4 136554478#5 -9532170#3"/>
    </vehicle>
    <vehicle id="30" depart="30.00">
        <route edges="884984288 884984287#0 884984287#1 -299672706#2 -299672706#1 -299672706#0 4695355#4 4695355#5 4695355#6 8106578#0 8106578#1 -1007845794 -8106572 -884592631 253055188#0 253055188#1 10600953#0 10600953#1 280302520#4 280302520#5 280302520#6 280302520#7 -253055134 881931037 253055135#0 253055135#1 116648333 518694391 518694393 518694394#0 518694394#1 518694394#2 518694395 518694396#0 518694396#1 1026252256#0 1026252256#1 1026252256#2 1026252256#3 1026252256#4 253055145#0"/>
    </vehicle>
    <vehicle id="31" depart="31.00">
        <route edges="299672709#2 299672709#3 299672709#4 8106560#0 4695355#2 4695355#3 4695355#4 4695355#5 4695355#6 8106578#0 8106578#1 -1007845794 -8106572 -884592631 253055188#0 253055188#1 10600953#0 10600953#1 280302520#4 280302520#5 964356224#0 -964356224#0"/>
    </vehicle>
    <vehicle id="32" depart="33.00">
        <route edges="-8106586#0 8106586#0 8106586#1 8106584#0 8106584#1 107914736#0"/>
    </vehicle>
    <vehicle id="33" depart="34.00">
        <route edges="196374470#0 196374470#1 966570835 966558214#0 966558214#1 515871624#0 515871624#1 256766492#0 256766492#1 1026252256#0 1026252256#1 1026252256#2 1026252256#3 1026252256#4 253055145#0 253055145#1 253055145#2 253055145#3 253055145#4 1026252224 1026251690 253055142 1026251689 253055186#0 253055186#1 884592631 8106572 1007845794 218521175#0 218521175#1 218521175#2 218521175#3 218521175#4 4515353#2 4515353#3 4515353#4 4515353#5 299672709#0 299672709#1 299672709#2 299672709#3 -8106559 4543344#10 4543344#11 59612433#2 8098291 289666167#0 -8098300#0 121429654 289666173"/>
    </vehicle>
    <vehicle id="34" depart="34.00">
        <route edges="-8106567#2 8106567#2 -107918574#1 -107918574#0 134997252#2 134997252#3"/>
    </vehicle>
    <vehicle id="35" depart="34.00">
        <route edges="10600957#0 1341791906 668392316#0 668392316#1 27885682#2 27885682#3 27885682#4 27885682#5 27885682#6 27885682#7 27885682#8 518694391 518694393 234795225 518694392 9532163#0 885428104 -290471790#3 -290471790#2 -290471790#1 -290471790#0 -253055134 881931037 253055187#0 253055187#1 1026251689 253055186#0 253055186#1 884592631 8106572 1007845794 218521175#0 218521175#1 218521175#2 218521175#3 218521175#4 -4515353#1 -4515353#0 -107914741#3 -107914741#2 -107914741#1 -107914741#0 4543344#0 4543344#1 4543344#2 4543344#3 4543344#4 4543344#5 4543344#6 4543344#7 4543344#8 289666165#2 289666165#3"/>
    </vehicle>
    <vehicle id="36" depart="35.00">
        <route edges="518693510#2 964092902 27885682#7 27885682#8 518694391 518694393 518694394#0 518694394#1 518694394#2 518694395 518694399 518694400#0 518694400#1 518694400#2 518694400#3 518694400#4"/>
    </vehicle>
    <vehicle id="37" depart="36.00">
        <route edges="-8106567#6 8106567#6"/>
    </vehicle>
    <vehicle id="38" depart="38.00">
        <route edges="-8106584#1 8106587#2 -4515353#2 -4515353#1 -4515353#0 -966566737 -8106575#4 8106581#2 -107913067#1 -8106580#2"/>
    </vehicle>
    <vehicle id="39" depart="39.00">
        <route edges="10600953#1 280302520#4 280302520#5 280302520#6 280302520#7 -253055134 881931037 253055135#0 253055135#1 116648333 518694391 518694393 518694394#0 518694394#1 518694394#2 518694395 518694396#0 518694396#1 1026252256#0 1026252256#1 1026252256#2 1026252256#3 1026252256#4 253055145#0 253055145#1 253055145#2 253055145#3 253055145#4"/>
    </vehicle>
    <vehicle id="40" depart="40.00">
        <route edges="1026251690 253055142 1026251689 253055144 964343516 10600953#0 10600953#1 280302520#4 280302520#5 280302520#6 280302520#7 -253055134 881931037 253055135#0 253055135#1 116648333 518694391"/>
    </vehicle>
    <vehicle id="41" depart="41.00">
        <route edges="-970176923 970176923 887402405 970176924 964415658 964415659 8106557 289666165#0 289666165#1 4543344#9 8106559 299672709#4 8106560#0 4695355#2 4695355#3 4695355#4 4695355#5 4695355#6 8106578#0 8106578#1 -1007845794 -8106572 -884592631 253055188#0 253055188#1 10600953#0 10600953#1 253055153 -280302516#2 427918951#0 427918951#1"/>
    </vehicle>
    <vehicle id="42" depart="41.00">
        <route edges="10597967#0 10597967#1 10597967#2 -253055166#1 -253055166#0 253055156#0 253055156#1 253055156#2 253055156#3 10597941#3 280302520#5 280302520#6 280302520#7 -253055134 881931037 253055187#0 253055187#1 1026251689 253055186#0 253055186#1"/>
    </vehicle>
    <vehicle id="43" depart="41.00">
        <route edges="289666165#3 299672709#2 299672709#3 299672709#4 8106560#0 4695355#2 4695355#3 4695355#4 4695355#5 4695355#6 8106578#0 8106578#1 -1007845794 -8106572 -884592631 253055188#0 253055188#1 10600953#0 10600953#1 280302520#4 280302520#5 280302520#6 280302520#7 -253055134"/>
    </vehicle>
    <vehicle id="44" depart="42.00">
        <route edges="10597945 10597954#4 -10597937#3 -10597937#2 -136554478#2 -136554478#1 -136554478#0 427918951#0 427918951#1 -10597965#1 -10597965#0 683261387#0 683261387#1 -683261387#1"/>
    </vehicle>
    <vehicle id="45" depart="42.00">
        <route edges="-10597954#1 -521581073#0 -10597949#1 -9532170#0 -883666865#1 -883666865#0 -290471790#3 -290471790#2 -290471790#1 -290471790#0 -253055134 881931037 253055135#0 253055135#1 116648333 518694391 518694393 518694394#0 518694394#1 518694394#2 518694395 518694396#0 518694396#1 1026252256#0 1026252256#1 1026252256#2 1026252256#3 1026252256#4 253055145#0 253055145#1"/>
    </vehicle>
    <vehicle id="46" depart="43.00">
        <route edges="-289562805#2 -289562805#1 -121429653#0 121429642#1 121429642#2 121429654 289666173 289666159#1 289666156#0 289666156#1 289666156#2 289666156#3 289666156#4 289666156#5 289666156#6 289666156#7 -5109322 8106586#0 8106586#1 8106586#2 -4515353#3 -4515353#2 -218521175#4"/>
    </vehicle>
    <vehicle id="47" depart="44.00">
        <route edges="-9532132#0 196374470#1 966570835 966558214#0 966558214#1 515871624#0 515871624#1 256766492#0 256766492#1 1026252256#0 1026252256#1 1026252256#2 1026252256#3 1026252256#4 253055145#0 253055145#1 253055145#2 253055145#3 253055145#4 1026252224 1026251690 253055142 1026251689 253055144 964343516 10600953#0 10600953#1 253055153 -280302516#2 427918951#0"/>
    </vehicle>
    <vehicle id="48" depart="45.00">
        <route edges="427918954 280302520#1 280302520#2 280302520#3 280302520#4 280302520#5 280302520#6 280302520#7 -253055134 881931037 253055187#0 253055187#1 1026251689 253055186#0 253055186#1 884592631 8106572 1007845794 218521175#0 218521175#1 218521175#2 218521175#3 218521175#4 4515353#2 4515353#3 4515353#4 4515353#5 299672709#0 299672709#1 299672709#2 299672709#3 -8106559 4543344#10 289563851#0 289563851#1 289666156#2 289666156#3 289666165#0 289666165#1"/>
    </vehicle>
    <vehicle id="49" depart="48.00">
        <route edges="8106578#1 218521175#0 218521175#1 218521175#2 218521175#3 218521175#4 4515353#2 4515353#3 4515353#4 4515353#5 299672709#0 299672709#1 299672709#2 299672709#3 299672709#4 8106560#0 8106560#1 8106567#2 -8106567#2"/>
    </vehicle>
    <vehicle id="50" depart="48.00">
        <route edges="8106567#1 -8106560#1 4695355#2 4695355#3 4695355#4 299672710#0 299672710#1 299672710#2 299672710#3 8106570 -4515353#4 -4515353#3 -4515353#2 -4515353#1 -4515353#0"/>
    </vehicle>
    <vehicle id="51" depart="49.00">
        <route edges="9532158#1 9532158#2 9532165#0 9532165#1 -883666865#0 -290471790#3 -290471790#2 -290471790#1 -290471790#0 -253055134 881931037 253055187#0 253055187#1 1026251689 253055186#0 253055186#1 884592631 8106572 1007845794 218521175#0 -8106579#0 -107916726#1"/>
    </vehicle>
    <vehicle id="52" depart="50.00">
        <route edges="-8098293#1 8098300#4 8098301#3 970176923 887402405 970176924 964415658 964415659 8106557 289666165#0 289666165#1 4543344#9 4543344#10"/>
    </vehicle>
    <vehicle id="53" depart="53.00">
        <route edges="234795225 518694392 9532163#0 885428104 -290471790#3 -290471790#2 -290471790#1 -290471790#0 -253055134 881931037 253055187#0 253055187#1 1026251689 253055186#0 253055186#1 884592631 8106572 1007845794 218521175#0 218521175#1 218521175#2 -8106581#0"/>
    </vehicle>
    <vehicle id="54" depart="54.00">
        <route edges="9532132#1 9532132#2 -9532132#2 -9532132#1 -9532132#0 196374470#1 966570835 966558214#0 966558214#1 515871624#0 515871624#1 256766492#0 256766492#1 1026252256#0 1026252256#1 1026252256#2 1026252256#3 1026252256#4 253055145#0 253055145#1 253055145#2 253055145#3 253055145#4 1026252224 1026251690 253055142 1026251689 253055186#0 253055186#1 884592631 8106572 1007845794 218521175#0 -8106579#0 884977113 8106571#0 8106571#1 8106569 299672706#0 299672706#1 299672706#2 299672706#3 134997252#5"/>
    </vehicle>
    <vehicle id="55" depart="54.00">
        <route edges="289666156#7 -5109322 8106586#0 8106586#1 8106586#2 -4515353#3 -4515353#2 -218521175#4 -218521175#3 -218521175#2 -218521175#1 -218521175#0 -1007845794 -8106572 -884592631 253055188#0 253055188#1 964405953 518693513 518693512#0 518693512#1 518693512#2 518693512#3 518693512#4 518698880 518698883#0 518698883#1 518698883#2 518698883#3 518698883#4 518698882 253055143#0 253055143#1 10600967 10600957#2 -10600957#2"/>
    </vehicle>
    <vehicle id="56" depart="57.00">
        <route edges="-1007845796 -1007845795#1 8106575#0 8106575#1 -8106579#1 218521175#1 218521175#2 218521175#3 218521175#4 4515353#2 4515353#3 4515353#4 4515353#5 299672709#0 299672709#1 299672709#2 299672709#3 -8106559 4543344#10 289563851#0 107919321#1"/>
    </vehicle>
    <vehicle id="57" depart="58.00">
        <route edges="-299672706#3 -299672706#2 -299672706#1 -299672706#0 4695355#4 4695355#5 4695355#6 8106578#0 8106578#1 -1007845794 -8106572 -884592631 253055188#0 253055188#1 964405953 518693513 518693512#0 518693512#1 518693512#2 518693512#3 518693512#4 518693511#0 518693511#1 518693511#2 518693511#3 10600955#0 10600955#1 -10597965#1 -914857392"/>
    </vehicle>
    <vehicle id="58" depart="59.00">
        <route edges="-10600955#0 518693510#0 518693510#1 518693510#2 964092902 27885682#7 27885682#8 518694391 518694393 234795225 518694392 9532163#0 885428104 -290471790#3 -290471790#2 -290471790#1 -290471790#0 -253055134 881931037 253055187#0 253055187#1 1026251689 253055186#0 253055186#1 884592631 8106572 1007845794 218521175#0 218521175#1 218521175#2 218521175#3 218521175#4 -4515353#1 -4515353#0 -107914741#3 -107914741#2 -107914741#1 -107914741#0 107914741#0"/>
    </vehicle>
    <vehicle id="59" depart="60.00">
        <route edges="9532170#3 -9532170#3 10597956#2 253055156#0 253055156#1 253055156#2 253055156#3 10597941#3 280302520#5 280302520#6 280302520#7 -253055134 881931037 253055187#0 253055187#1 1026251689 253055186#0 253055186#1 884592631 8106572 1007845794 218521175#0 218521175#1 218521175#2 218521175#3 218521175#4 4515353#2 4515353#3 4515353#4 4515353#5 299672709#0 299672709#1 299672709#2 299672709#3 299672709#4 8106560#0 8106560#1"/>
    </vehicle>
    <vehicle id="60" depart="60.00">
        <route edges="518693512#0 518693512#1 518693512#2 518693512#3 518693512#4 518693511#0 518693503#0 518693503#1 -10600954 10600953#1 280302520#4 280302520#5 280302520#6 280302520#7 -253055134 881931037 253055187#0 253055187#1 1026251689 253055186#0 253055186#1 884592631 8106572 1007845794 218521175#0 218521175#1 218521175#2 218521175#3 218521175#4 4515353#2 4515353#3 4515353#4 4515353#5 299672709#0 299672709#1 299672709#2 299672709#3 -8106559 4543344#10 4543344#11 59612433#2 8098291 289666167#0 -8098300#0 121429654"/>
    </vehicle>
    <vehicle id="61" depart="61.00">
        <route edges="1007845795#1 -1007845795#1 8106575#0 8106575#1 8106575#2 8106575#3 8106575#4 966566737 -966566737"/>
    </vehicle>
    <vehicle id="62" depart="65.00">
        <route edges="970176924 964415658 964415659 8106557 289666165#0 289666165#1 4543344#9 8106559 299672709#4 8106560#0 4695355#2 4695355#3 4695355#4 4695355#5 4695355#6 8106578#0 8106578#1 -1007845794 -8106572 -884592631 253055188#0 253055188#1 10600953#0 10600953#1 280302520#4 280302520#5 280302520#6 280302520#7 290471790#0 290471790#1 290471790#2 290471790#3 883666865#0 883666865#1 883666865#2"/>
    </vehicle>
    <vehicle id="63" depart="69.00">
        <route edges="518693503#1 -10600954 10600953#1 280302520#4 280302520#5 280302520#6 280302520#7 -253055134 881931037 253055187#0 253055187#1 1026251689 253055186#0 253055186#1 884592631 8106572 1007845794 218521175#0 218521175#1 218521175#2 218521175#3 218521175#4 -4515353#1 -4515353#0 -107914741#3 -107914741#2 -107914741#1 -107914741#0 4543344#0 4543344#1 4543344#2 4543344#3 4543344#4 4543344#5 4543344#6 4543344#7 4543344#8 4543344#9"/>
    </vehicle>
    <vehicle id="64" depart="69.00">
        <route edges="136554478#3 -136554478#3 -136554478#2 -136554478#1 -136554478#0 427918951#0 280302520#2"/>
    </vehicle>
    <vehicle id="65" depart="72.00">
        <route edges="-107914736#1 107914736#1 4543344#1 4543344#2 4543344#3 4543344#4 4543344#5 4543344#6 4543344#7 4543344#8 4543344#9 4543344#10 4543344#11 59612433#2 8098291 289666167#0"/>
    </vehicle>
    <vehicle id="66" depart="72.00">
        <route edges="289666159#1 289666156#0 289666156#1 289666156#2 289666156#3 289666165#0 289666165#1 4543344#9 8106559 299672709#4 8106560#0 4695355#2 4695355#3 4695355#4 4695355#5 4695355#6 8106578#0"/>
    </vehicle>
    <vehicle id="67" depart="73.00">
        <route edges="5469006#1 5469006#2 5469006#3 253055145#0 253055145#1 253055145#2 253055145#3 253055145#4 1026252224 1026251690 253055142 1026251689 253055186#0 253055186#1 884592631 8106572 1007845794 218521175#0 218521175#1 218521175#2 218521175#3 218521175#4 4515353#2 -8106587#2 -8106587#1 -8106589#0"/>
    </vehicle>
    <vehicle id="68" depart="73.00">
        <route edges="8106575#3 8106575#4 8106575#5 -8106583#0 -107914741#2 -107914741#1 -107914741#0 4543344#0 4543344#1 4543344#2 5109322 289666156#8 289666156#9"/>
    </vehicle>
    <vehicle id="69" depart="74.00">
        <route edges="644198806#1 10597965#0 10597965#1 -10600955#1 -10600955#0 518693510#0 518693510#1 518693510#2 964092902 27885682#7 27885682#8 518694391 518694393 234795225 518694392 9532163#0 885428104 -290471790#3 -290471790#2 -290471790#1 -290471790#0 -253055134 881931037 253055187#0 253055187#1 1026251689 253055186#0 253055186#1 884592631 8106572 1007845794 218521175#0 218521175#1 218521175#2 218521175#3 218521175#4 4515353#2 -8106587#2 8106587#2"/>
    </vehicle>
    <vehicle id="70" depart="76.00">
        <route edges="280302520#5 280302520#6 280302520#7 -253055134 881931037 253055187#0 253055187#1 1026251689 253055186#0 253055186#1 884592631 8106572 1007845794 253055159#0 253055159#1 1007845796 1369965210"/>
    </vehicle>
    <vehicle id="71" depart="78.00">
        <route edges="-8106589#1 8106587#1 8106587#2 -4515353#2 -218521175#4 -218521175#3 -218521175#2 -218521175#1 -218521175#0 -1007845794 -8106572 -884592631 253055188#0 253055188#1 964405953 518693513 518693512#0 518693512#1"/>
    </vehicle>
    <vehicle id="72" depart="81.00">
        <route edges="253055134 -253055134 881931037 253055135#0 253055135#1 116648333"/>
    </vehicle>
    <vehicle id="73" depart="82.00">
        <route edges="8106579#1 -8106579#1 -8106579#0 884977113 -4695356#3 4695355#6 253055175#0"/>
    </vehicle>
    <vehicle id="74" depart="82.00">
        <route edges="8098294 970176923 887402405 970176924 964415658 964415659 8106557 289666165#0 289666165#1 4543344#9 8106559 299672709#4 8106560#0 4695355#2 4695355#3 4695355#4 4695355#5 4695355#6 8106578#0 8106578#1 -1007845794 -8106572 -884592631 253055188#0 253055188#1 10600953#0 10600953#1 280302520#4 280302520#5 280302520#6 280302520#7 -253055134 881931037 253055135#0 253055135#1 116648333 518694391 518694393 518694394#0 518694394#1 518694394#2 518694395 518694396#0 518694396#1 1026252256#0 1026252256#1 1026252256#2 1026252256#3 1026252256#4 253055145#0 253055145#1 253055145#2 253055145#3 253055145#4 881931038"/>
    </vehicle>
    <vehicle id="75" depart="83.00">
        <route edges="8106580#0 -218521175#1 -218521175#0 -1007845794 -8106572 -884592631 253055188#0 253055188#1 10600953#0 10600953#1 280302520#4 280302520#5 280302520#6 280302520#7 -253055134"/>
    </vehicle>
    <vehicle id="76" depart="83.00">
        <route edges="134997252#1 107918574#0 107918574#1 8106567#3 -884984290 4695355#3 4695355#4 4695355#5 4695355#6 8106578#0 8106578#1 -1007845794 -8106572 -884592631 253055188#0 253055188#1 964405953 518693513 518693512#0 518693512#1 518693512#2 518693512#3 518693512#4 518698880 518698883#0 518698883#1 518698883#2 518698883#3 518698883#4 518698882 253055143#0 427918956 10600962"/>
    </vehicle>
    <vehicle id="77" depart="84.00">
        <route edges="10597937#3 -10597954#4 10597954#4 -10597937#3 253055156#2 253055156#3 10597941#3 280302520#5 280302520#6 280302520#7 -253055134 881931037 253055187#0 253055187#1 1026251689 253055186#0 253055186#1 884592631 8106572 1007845794 218521175#0 -8106579#0 -107916726#1 107916726#1"/>
    </vehicle>
    <vehicle id="78" depart="84.00">
        <route edges="427918943 9874694 10600957#0 1341791906 668392316#0 668392316#1 27885682#2 27885682#3 27885682#4 27885682#5 27885682#6 27885682#7 27885682#8 518694391 518694393 234795225 518694392 9532163#0 885428104 -290471790#3 -290471790#2 -290471790#1 -290471790#0 -253055134 881931037 253055187#0 253055187#1 1026251689 253055144 964343516 10600953#0 10600953#1 253055153"/>
    </vehicle>
    <vehicle id="79" depart="85.00">
        <route edges="518698883#2 279346678 279346676#1 -10600955#0 518693510#0 518693510#1 518693510#2 964092902 27885682#7 27885682#8 518694391 518694393 234795225 518694392 9532163#0 885428104 -290471790#3 -290471790#2 -290471790#1 -290471790#0 -253055134 881931037 253055187#0 253055187#1 1026251689 253055186#0 253055186#1 884592631 8106572 1007845794 218521175#0 218521175#1 218521175#2 218521175#3 218521175#4 4515353#2 4515353#3 4515353#4 4515353#5 299672709#0 299672709#1 299672709#2 299672709#3 299672709#4 8106560#0 8106560#1 8106567#2 -8106567#2"/>
    </vehicle>
    <vehicle id="81" depart="86.00">
        <route edges="8106567#7 -8106567#7 4695356#2 4695355#6 8106578#0 8106578#1 -1007845794 -8106572 -884592631 253055188#0 253055188#1 10600953#0 10600953#1 253055153 -280302516#2 136554478#0 136554478#1 136554478#2 136554478#3 136554478#4 -253055166#0"/>
    </vehicle>
    <vehicle id="83" depart="87.00">
        <route edges="518693502#1 518693511#3 10600955#0 -10600955#0 518693510#0 518693510#1 518693510#2 964092902 27885682#7 27885682#8 518694391 518694393 234795225 518694392 9532163#0 885428104 -290471790#3 -290471790#2 -290471790#1 -290471790#0 -253055134 881931037 253055135#0 253055135#1"/>
    </vehicle>
    <vehicle id="84" depart="88.00">