<?xml version="1.0" encoding="UTF-8"?>

<!-- generated on 2025-04-10 00:10:36.657369 by randomTrips.py UNKNOWN
<configuration>
    <net-file value="../net/santa_tereza.net.xml"/>
    <output-trip-file value="../routes/santa_tereza.trips.xml"/>
    <route-file value="../routes/santa_tereza.rou.xml"/>
    <validate value="True"/>
    <end value="1000.0"/>
    <period value="1.0"/>
    <binomial value="10"/>
</configuration>
-->

<!-- generated on 2025-04-10 00:10:36 by Eclipse SUMO duarouter Version 1.18.0
<configuration xmlns:xsi="http://www.w3.org/2001/XMLSchema-instance" xsi:noNamespaceSchemaLocation="http://sumo.dlr.de/xsd/duarouterConfiguration.xsd">

    <input>
        <net-file value="../net/santa_tereza.net.xml"/>
        <route-files value="../routes/santa_tereza.trips.xml"/>
    </input>

    <output>
        <output-file value="../routes/santa_tereza.trips.xml.tmp"/>
        <alternatives-output value="NUL"/>
        <write-trips value="true"/>
    </output>

    <time>
        <begin value="0.0"/>
        <end value="1000.0"/>
    </time>

    <report>
        <no-warnings value="true"/>
        <ignore-errors value="true"/>
        <no-step-log value="true"/>
    </report>

</configuration>
-->

<routes xmlns:xsi="http://www.w3.org/2001/XMLSchema-instance" xsi:noNamespaceSchemaLocation="http://sumo.dlr.de/xsd/routes_file.xsd">
    <trip id="0" depart="0.00" from="-8106581#0" to="-8098300#3"/>
    <trip id="1" depart="0.00" from="10600963#1" to="-10597956#2"/>
    <trip id="2" depart="0.00" from="-521581073#0" to="299672709#0"/>
    <trip id="3" depart="1.00" from="645337132" to="4543344#3"/>
    <trip id="4" depart="1.00" from="-134997252#4" to="8106567#5"/>
    <trip id="5" depart="3.00" from="-8098300#4" to="-8106587#0"/>
    <trip id="6" depart="3.00" from="-8098301#3" to="-134997252#3"/>
    <trip id="7" depart="5.00" from="-9532158#1" to="-8106579#2"/>
    <trip id="8" depart="7.00" from="-10600957#2" to="-136554478#4"/>
    <trip id="9" depart="7.00" from="10597954#0" to="9874683#1"/>
    <trip id="10" depart="8.00" from="4695355#4" to="427918956"/>
    <trip id="11" depart="10.00" from="-9532165#1" to="-10597949#1"/>
    <trip id="12" depart="10.00" from="8106576#3" to="9532163#2"/>
    <trip id="13" depart="10.00" from="121429654" to="-107913067#3"/>
    <trip id="15" depart="13.00" from="-8106560#2" to="314943015#1"/>
    <trip id="16" depart="14.00" from="107459586" to="107913067#2"/>
    <trip id="17" depart="14.00" from="10597967#7" to="1007845794"/>
    <trip id="18" depart="16.00" from="9874694" to="8106560#1"/>
    <trip id="19" depart="16.00" from="10597945" to="966570835"/>
    <trip id="20" depart="18.00" from="27885682#2" to="196374471"/>
    <trip id="21" depart="18.00" from="-4695356#1" to="280302520#6"/>
    <trip id="22" depart="20.00" from="107918574#1" to="9874688#1"/>
    <trip id="23" depart="21.00" from="-683261387#0" to="-8106579#0"/>
    <trip id="24" depart="22.00" from="74503246" to="-883666865#1"/>
    <trip id="25" depart="23.00" from="10600965#1" to="-8106581#2"/>
    <trip id="26" depart="23.00" from="518694395" to="290471790#1"/>
    <trip id="27" depart="24.00" from="-107914744" to="8106580#3"/>
    <trip id="28" depart="26.00" from="5109322" to="-966312980"/>
    <trip id="29" depart="28.00" from="-4695356#7" to="-9532170#3"/>
    <trip id="30" depart="30.00" from="884984288" to="253055145#0"/>
    <trip id="31" depart="31.00" from="299672709#2" to="-964356224#0"/>
    <trip id="32" depart="33.00" from="-8106586#0" to="107914736#0"/>
    <trip id="33" depart="34.00" from="196374470#0" to="289666173"/>
    <trip id="34" depart="34.00" from="-8106567#2" to="134997252#3"/>
    <trip id="35" depart="34.00" from="10600957#0" to="289666165#3"/>
    <trip id="36" depart="35.00" from="518693510#2" to="518694400#4"/>
    <trip id="37" depart="36.00" from="-8106567#6" to="8106567#6"/>
    <trip id="38" depart="38.00" from="-8106584#1" to="-8106580#2"/>
    <trip id="39" depart="39.00" from="10600953#1" to="253055145#4"/>
    <trip id="40" depart="40.00" from="1026251690" to="518694391"/>
    <trip id="41" depart="41.00" from="-970176923" to="427918951#1"/>
    <trip id="42" depart="41.00" from="10597967#0" to="253055186#1"/>
    <trip id="43" depart="41.00" from="289666165#3" to="-253055134"/>
    <trip id="44" depart="42.00" from="10597945" to="-683261387#1"/>
    <trip id="45" depart="42.00" from="-10597954#1" to="253055145#1"/>
    <trip id="46" depart="43.00" from="-289562805#2" to="-218521175#4"/>
    <trip id="47" depart="44.00" from="-9532132#0" to="427918951#0"/>
    <trip id="48" depart="45.00" from="427918954" to="289666165#1"/>
    <trip id="49" depart="48.00" from="8106578#1" to="-8106567#2"/>
    <trip id="50" depart="48.00" from="8106567#1" to="-4515353#0"/>
    <trip id="51" depart="49.00" from="9532158#1" to="-107916726#1"/>
    <trip id="52" depart="50.00" from="-8098293#1" to="4543344#10"/>
    <trip id="53" depart="53.00" from="234795225" to="-8106581#0"/>
    <trip id="54" depart="54.00" from="9532132#1" to="134997252#5"/>
    <trip id="55" depart="54.00" from="289666156#7" to="-10600957#2"/>
    <trip id="56" depart="57.00" from="-1007845796" to="107919321#1"/>
    <trip id="57" depart="58.00" from="-299672706#3" to="-914857392"/>
    <trip id="58" depart="59.00" from="-10600955#0" to="107914741#0"/>
    <trip id="59" depart="60.00" from="9532170#3" to="8106560#1"/>
    <trip id="60" depart="60.00" from="518693512#0" to="121429654"/>
    <trip id="61" depart="61.00" from="1007845795#1" to="-966566737"/>
    <trip id="62" depart="65.00" from="970176924" to="883666865#2"/>
    <trip id="63" depart="69.00" from="518693503#1" to="4543344#9"/>
    <trip id="64" depart="69.00" from="136554478#3" to="280302520#2"/>
    <trip id="65" depart="72.00" from="-107914736#1" to="289666167#0"/>
    <trip id="66" depart="72.00" from="289666159#1" to="8106578#0"/>
    <trip id="67" depart="73.00" from="5469006#1" to="-8106589#0"/>
    <trip id="68" depart="73.00" from="8106575#3" to="289666156#9"/>
    <trip id="69" depart="74.00" from="644198806#1" to="8106587#2"/>
    <trip id="70" depart="76.00" from="280302520#5" to="1369965210"/>
    <trip id="71" depart="78.00" from="-8106589#1" to="518693512#1"/>
    <trip id="72" depart="81.00" from="253055134" to="116648333"/>
    <trip id="73" depart="82.00" from="8106579#1" to="253055175#0"/>
    <trip id="74" depart="82.00" from="8098294" to="881931038"/>
    <trip id="75" depart="83.00" from="8106580#0" to="-253055134"/>
    <trip id="76" depart="83.00" from="134997252#1" to="10600962"/>
    <trip id="77" depart="84.00" from="10597937#3" to="107916726#1"/>
    <trip id="78" depart="84.00" from="427918943" to="253055153"/>
    <trip id="79" depart="85.00" from="518698883#2" to="-8106567#2"/>
    <trip id="81" depart="86.00" from="8106567#7" to="-253055166#0"/>
    <trip id="83" depart="87.00" from="518693502#1" to="253055135#1"/>
    <trip id="84" depart="88.00" from="518698882" to="8106576#0"/>
    <trip id="85" depart="88.00" from="116650774#0" to="10600957#0"/>
    <trip id="86" depart="88.00" from="-107916726#0" to="289623982#1"/>
    <trip id="87" depart="89.00" from="-8106581#0" to="289666173"/>
    <trip id="88" depart="89.00" from="4543344#1" to="8106568#1"/>
    <trip id="89" depart="90.00" from="10600967" to="314942781#1"/>
    <trip id="90" depart="91.00" from="8098300#4" to="-116650774#0"/>
    <trip id="91" depart="91.00" from="515871624#1" to="683261388"/>
    <trip id="93" depart="94.00" from="8106575#2" to="253055187#1"/>
    <trip id="94" depart="95.00" from="518693509#0" to="-8098292#0"/>
    <trip id="95" depart="95.00" from="-10600963#1" to="-289563510#1"/>
    <trip id="96" depart="97.00" from="10597967#1" to="289563510#0"/>
    <trip id="97" depart="97.00" from="-883666865#2" to="-683261387#1"/>
    <trip id="98" depart="97.00" from="518693509#1" to="-370658136#0"/>
    <trip id="99" depart="98.00" from="8106569" to="-10597972#0"/>
    <trip id="100" depart="98.00" from="884977113" to="8106575#2"/>
    <trip id="101" depart="99.00" from="-9532170#0" to="681772141"/>
    <trip id="102" depart="99.00" from="8106560#2" to="-8106567#1"/>
    <trip id="103" depart="103.00" from="107914736#1" to="-884984287#1"/>
    <trip id="104" depart="103.00" from="136555995#1" to="-9532132#0"/>
    <trip id="105" depart="103.00" from="8098300#4" to="-107914741#2"/>
    <trip id="106" depart="104.00" from="-136554478#2" to="8106587#0"/>
    <trip id="107" depart="106.00" from="-134997252#3" to="427918951#1"/>
    <trip id="108" depart="110.00" from="8106560#2" to="-134997252#3"/>
    <trip id="109" depart="110.00" from="-970176923" to="518694400#1"/>
    <trip id="110" depart="115.00" from="-10600965#0" to="196374470#1"/>
    <trip id="111" depart="115.00" from="885785076" to="8106566#0"/>
    <trip id="112" depart="116.00" from="-107916724#3" to="-8106575#3"/>
    <trip id="113" depart="117.00" from="10600962" to="59612433#2"/>
    <trip id="114" depart="118.00" from="196374470#0" to="-8106567#0"/>
    <trip id="115" depart="118.00" from="964415658" to="-107913067#2"/>
    <trip id="116" depart="119.00" from="518698883#4" to="1026251912"/>
    <trip id="119" depart="121.00" from="-521581073#0" to="-10597967#7"/>
    <trip id="120" depart="123.00" from="280302520#2" to="8098300#1"/>
    <trip id="121" depart="124.00" from="299672708" to="-885837724"/>
    <trip id="122" depart="124.00" from="8106575#2" to="1026252256#0"/>
    <trip id="124" depart="125.00" from="-107914736#0" to="518698883#3"/>
    <trip id="126" depart="129.00" from="253055143#1" to="8106583#1"/>
    <trip id="127" depart="130.00" from="253055145#4" to="10597945"/>
    <trip id="129" depart="131.00" from="964415656#0" to="299672706#2"/>
    <trip id="130" depart="132.00" from="-218521175#4" to="-289562805#1"/>
    <trip id="131" depart="134.00" from="-10600957#1" to="299672706#1"/>
    <trip id="132" depart="136.00" from="-107459586" to="107916724#1"/>
    <trip id="133" depart="137.00" from="-8106587#0" to="10597967#1"/>
    <trip id="134" depart="138.00" from="9532142#2" to="218167613#1"/>
    <trip id="135" depart="139.00" from="134997252#5" to="8106580#3"/>
    <trip id="136" depart="140.00" from="136554478#5" to="518694399"/>
    <trip id="137" depart="142.00" from="-253055156#2" to="-966566737"/>
    <trip id="139" depart="145.00" from="9532158#1" to="-136554478#4"/>
    <trip id="140" depart="145.00" from="-9532132#2" to="-280302516#2"/>
    <trip id="142" depart="151.00" from="10600955#3" to="4695356#4"/>
    <trip id="144" depart="153.00" from="253055186#1" to="253055143#6"/>
    <trip id="145" depart="154.00" from="253055166#1" to="-136554478#2"/>
    <trip id="146" depart="157.00" from="299672709#6" to="-4515353#3"/>
    <trip id="147" depart="158.00" from="299672706#1" to="4543344#10"/>
    <trip id="148" depart="158.00" from="-218167613#1" to="-885837724"/>
    <trip id="149" depart="160.00" from="107914741#3" to="4543344#8"/>
    <trip id="151" depart="161.00" from="1369965209" to="683261387#0"/>
    <trip id="152" depart="162.00" from="107919322" to="683259340#1"/>
    <trip id="153" depart="162.00" from="1007845794" to="-1070008774"/>
    <trip id="154" depart="162.00" from="887402405" to="-10597965#1"/>
    <trip id="155" depart="165.00" from="-10597954#4" to="-883666865#0"/>
    <trip id="156" depart="166.00" from="-681772141" to="-134997252#3"/>
    <trip id="157" depart="166.00" from="280302516#1" to="4543344#7"/>
    <trip id="158" depart="166.00" from="518693502#0" to="10600957#0"/>
    <trip id="159" depart="167.00" from="136554478#5" to="-8106587#0"/>
    <trip id="160" depart="168.00" from="9532158#1" to="8106580#1"/>
    <trip id="161" depart="171.00" from="4695356#0" to="-4695356#2"/>
    <trip id="162" depart="172.00" from="914857392" to="964356224#1"/>
    <trip id="164" depart="177.00" from="-10597967#5" to="8106567#4"/>
    <trip id="165" depart="178.00" from="136554478#6" to="10597949#2"/>
    <trip id="166" depart="178.00" from="253055145#2" to="-10597939#1"/>
    <trip id="167" depart="179.00" from="683259340#0" to="427918941#0"/>
    <trip id="168" depart="179.00" from="-280302516#1" to="-4695356#3"/>
    <trip id="169" depart="181.00" from="10597949#0" to="253055159#0"/>
    <trip id="170" depart="181.00" from="-10597939#1" to="-299672707#1"/>
    <trip id="171" depart="181.00" from="234350985#0" to="-10597972#0"/>
    <trip id="172" depart="182.00" from="-107914744" to="885785078"/>
    <trip id="174" depart="183.00" from="-299672706#0" to="-8106566#2"/>
    <trip id="175" depart="184.00" from="107913067#4" to="8106566#0"/>
    <trip id="176" depart="184.00" from="-8106580#3" to="970815613"/>
    <trip id="178" depart="185.00" from="-289563510#0" to="4695355#5"/>
    <trip id="179" depart="186.00" from="-885428105" to="10597937#2"/>
    <trip id="180" depart="187.00" from="1026251912" to="-116650774#0"/>
    <trip id="181" depart="187.00" from="8106584#0" to="8106589#2"/>
    <trip id="182" depart="188.00" from="107913067#2" to="107913067#0"/>
    <trip id="183" depart="188.00" from="-8106572" to="-8106567#4"/>
    <trip id="184" depart="193.00" from="970176923" to="134997252#6"/>
    <trip id="185" depart="194.00" from="518694394#1" to="299672709#6"/>
    <trip id="186" depart="195.00" from="966558214#0" to="427918951#0"/>
    <trip id="187" depart="195.00" from="-8106575#5" to="218521175#3"/>
    <trip id="189" depart="199.00" from="289563510#1" to="-4695356#7"/>
    <trip id="190" depart="200.00" from="-136554478#1" to="8106577"/>
    <trip id="191" depart="202.00" from="-253055134" to="-1369965209"/>
    <trip id="193" depart="205.00" from="-10597967#2" to="518694395"/>
    <trip id="194" depart="206.00" from="4695355#3" to="253055156#0"/>
    <trip id="195" depart="208.00" from="1026251689" to="-8106583#1"/>
    <trip id="196" depart="209.00" from="9532170#3" to="521581073#4"/>
    <trip id="197" depart="211.00" from="196374470#1" to="-8106581#3"/>
    <trip id="199" depart="212.00" from="234795225" to="-8098293#0"/>
    <trip id="200" depart="213.00" from="-134997252#7" to="521581073#2"/>
    <trip id="201" depart="214.00" from="9532167" to="-521581073#1"/>
    <trip id="202" depart="215.00" from="116650167#1" to="-234795224"/>
    <trip id="203" depart="216.00" from="4515353#2" to="8098293#0"/>
    <trip id="204" depart="216.00" from="10597954#1" to="518693502#0"/>
    <trip id="205" depart="217.00" from="290471790#2" to="107916724#2"/>
    <trip id="206" depart="218.00" from="-134997252#7" to="518693513"/>
    <trip id="207" depart="219.00" from="253055145#3" to="289563510#1"/>
    <trip id="208" depart="220.00" from="8106583#0" to="9532170#3"/>
    <trip id="209" depart="221.00" from="-107914736#0" to="-8106576#2"/>
    <trip id="211" depart="222.00" from="253055134" to="289666156#6"/>
    <trip id="212" depart="223.00" from="4515353#5" to="515871624#1"/>
    <trip id="213" depart="223.00" from="-1150368828" to="107914741#2"/>
    <trip id="214" depart="225.00" from="666016330" to="-8106580#2"/>
    <trip id="215" depart="226.00" from="4543344#7" to="27885682#4"/>
    <trip id="216" depart="226.00" from="107916726#1" to="10597937#2"/>
    <trip id="217" depart="227.00" from="8106570" to="-8106567#2"/>
    <trip id="218" depart="228.00" from="10597939#1" to="196374470#1"/>
    <trip id="219" depart="229.00" from="1150368828" to="-8106583#2"/>
    <trip id="220" depart="229.00" from="-521581073#1" to="253055186#0"/>
    <trip id="221" depart="230.00" from="10600955#0" to="-8106560#0"/>
    <trip id="222" depart="231.00" from="299672707#0" to="8106567#6"/>
    <trip id="223" depart="231.00" from="9874683#0" to="4695355#5"/>
    <trip id="224" depart="231.00" from="884977113" to="8106586#1"/>
    <trip id="225" depart="232.00" from="-134997252#3" to="-234795224"/>
    <trip id="226" depart="232.00" from="253055166#1" to="107914741#3"/>
    <trip id="227" depart="233.00" from="-521581073#3" to="518698883#4"/>
    <trip id="228" depart="235.00" from="8098301#2" to="-9532170#3"/>
    <trip id="229" depart="235.00" from="-8106567#5" to="1026252256#3"/>
    <trip id="230" depart="235.00" from="10597972#1" to="115779437#0"/>
    <trip id="231" depart="236.00" from="8098300#3" to="966558214#1"/>
    <trip id="232" depart="237.00" from="-107913067#2" to="8106589#0"/>
    <trip id="233" depart="237.00" from="107919321#1" to="-299672706#2"/>
    <trip id="234" depart="238.00" from="427918941#0" to="-299672707#2"/>
    <trip id="236" depart="239.00" from="-8106582" to="-253055156#0"/>
    <trip id="237" depart="241.00" from="970176923" to="253055143#1"/>
    <trip id="238" depart="242.00" from="978318661" to="-8098300#0"/>
    <trip id="239" depart="243.00" from="4543344#0" to="9532165#0"/>
    <trip id="240" depart="244.00" from="-8098301#3" to="-8098294"/>
    <trip id="241" depart="244.00" from="883666865#0" to="-521581073#1"/>
    <trip id="242" depart="244.00" from="27885682#4" to="884984287#1"/>
    <trip id="243" depart="248.00" from="280302520#2" to="885428104"/>
    <trip id="244" depart="249.00" from="4543344#4" to="290471790#3"/>
    <trip id="245" depart="249.00" from="-8106575#3" to="-136554478#2"/>
    <trip id="246" depart="249.00" from="10597954#3" to="518693503#0"/>
    <trip id="247" depart="251.00" from="8106566#0" to="-8106589#1"/>
    <trip id="248" depart="251.00" from="-314943015#1" to="10597954#2"/>
    <trip id="249" depart="251.00" from="279346676#1" to="289666156#4"/>
    <trip id="250" depart="251.00" from="9532132#2" to="-290471790#3"/>
    <trip id="251" depart="253.00" from="253055175#0" to="8106566#1"/>
    <trip id="252" depart="253.00" from="-314943015#1" to="-8106587#2"/>
    <trip id="253" depart="254.00" from="8106560#2" to="-914857392"/>
    <trip id="254" depart="254.00" from="253055143#2" to="-4515353#3"/>
    <trip id="255" depart="255.00" from="518693511#0" to="314942781#2"/>
    <trip id="256" depart="255.00" from="-9874688#1" to="253055145#3"/>
    <trip id="257" depart="256.00" from="8106584#1" to="4695356#1"/>
    <trip id="258" depart="258.00" from="10597956#0" to="10600955#0"/>
    <trip id="259" depart="261.00" from="-8106581#1" to="-253055159#1"/>
    <trip id="260" depart="261.00" from="8106580#2" to="-966312980"/>
    <trip id="261" depart="261.00" from="74503246" to="-884984287#1"/>
    <trip id="262" depart="262.00" from="8106575#1" to="-235026231#0"/>
    <trip id="263" depart="264.00" from="-4695356#7" to="8106559"/>
    <trip id="264" depart="265.00" from="10597939#1" to="280302520#6"/>
    <trip id="265" depart="267.00" from="518698880" to="518694400#2"/>
    <trip id="266" depart="267.00" from="8106589#1" to="299672707#2"/>
    <trip id="267" depart="267.00" from="-8106572" to="683259340#0"/>
    <trip id="268" depart="269.00" from="968557200" to="299672706#0"/>
    <trip id="269" depart="271.00" from="4543344#3" to="256766492#1"/>
    <trip id="270" depart="273.00" from="-234350985#1" to="-8106575#5"/>
    <trip id="271" depart="273.00" from="1026252225#0" to="518693511#2"/>
    <trip id="272" depart="274.00" from="8106580#2" to="196374467#2"/>
    <trip id="273" depart="275.00" from="8106567#4" to="-253055156#1"/>
    <trip id="274" depart="276.00" from="-8106580#3" to="518694395"/>
    <trip id="275" depart="277.00" from="289563510#1" to="289666173"/>
    <trip id="276" depart="277.00" from="-521581073#0" to="10597949#2"/>
    <trip id="277" depart="277.00" from="-9532165#0" to="8106559"/>
    <trip id="278" depart="280.00" from="8106576#1" to="-8106575#3"/>
    <trip id="279" depart="281.00" from="970176925#1" to="299672710#2"/>
    <trip id="282" depart="284.00" from="299672710#1" to="843619662"/>
    <trip id="283" depart="284.00" from="1369965210" to="508860868"/>
    <trip id="284" depart="285.00" from="-427918941#0" to="-10597967#5"/>
    <trip id="285" depart="285.00" from="518693512#1" to="-10600955#0"/>
    <trip id="286" depart="286.00" from="683261387#1" to="-4515353#1"/>
    <trip id="288" depart="288.00" from="427918941#1" to="8106565"/>
    <trip id="289" depart="289.00" from="-8106576#1" to="-9532158#0"/>
    <trip id="290" depart="290.00" from="299672709#0" to="-8106567#6"/>
    <trip id="291" depart="290.00" from="289666165#3" to="-289563510#1"/>
    <trip id="292" depart="291.00" from="134997252#3" to="-8106566#2"/>
    <trip id="293" depart="291.00" from="-8098300#0" to="299672706#2"/>
    <trip id="294" depart="292.00" from="-121429653#0" to="289563851#1"/>
    <trip id="295" depart="293.00" from="-8098300#0" to="116648333"/>
    <trip id="296" depart="295.00" from="-299672706#2" to="-253055156#3"/>
    <trip id="297" depart="297.00" from="887402406" to="8106566#0"/>
    <trip id="299" depart="303.00" from="683261387#0" to="-134997252#5"/>
    <trip id="300" depart="305.00" from="-8106572" to="289666159#1"/>
    <trip id="301" depart="308.00" from="885837724" to="289666156#5"/>
    <trip id="303" depart="309.00" from="-8098293#0" to="-74503246"/>
    <trip id="304" depart="310.00" from="299672709#6" to="107916726#2"/>
    <trip id="305" depart="312.00" from="8106583#0" to="-4695356#3"/>
    <trip id="307" depart="314.00" from="-10600965#1" to="644198806#0"/>
    <trip id="308" depart="315.00" from="299672710#2" to="253055143#5"/>
    <trip id="309" depart="315.00" from="885428104" to="-136554478#1"/>
    <trip id="310" depart="315.00" from="518694392" to="107916724#0"/>
    <trip id="311" depart="317.00" from="280302516#0" to="253055144"/>
    <trip id="312" depart="320.00" from="-134997252#6" to="509528033"/>
    <trip id="313" depart="321.00" from="-8106567#3" to="-8098300#1"/>
    <trip id="314" depart="323.00" from="-107916724#0" to="-10597949#0"/>
    <trip id="315" depart="323.00" from="27885682#0" to="10600957#3"/>
    <trip id="316" depart="327.00" from="10597937#2" to="-10597972#0"/>
    <trip id="318" depart="330.00" from="289666165#3" to="-683261387#1"/>
    <trip id="320" depart="331.00" from="253055186#0" to="-10600963#0"/>
    <trip id="321" depart="332.00" from="4695355#3" to="299672710#2"/>
    <trip id="322" depart="332.00" from="107916724#0" to="9874681"/>
    <trip id="323" depart="334.00" from="116650167#0" to="289666156#5"/>
    <trip id="324" depart="334.00" from="518698883#0" to="196374471"/>
    <trip id="325" depart="336.00" from="234350985#1" to="-8098301#3"/>
    <trip id="326" depart="336.00" from="-253055134" to="134997252#5"/>
    <trip id="327" depart="337.00" from="299672706#2" to="4515353#4"/>
    <trip id="328" depart="341.00" from="-121429653#1" to="-253055166#0"/>
    <trip id="329" depart="341.00" from="-8098293#1" to="-107916724#0"/>
    <trip id="330" depart="341.00" from="10597954#2" to="966570835"/>
    <trip id="331" depart="343.00" from="280302520#0" to="234350985#1"/>
    <trip id="332" depart="343.00" from="-8106566#0" to="-1007845794"/>
    <trip id="333" depart="344.00" from="-121429653#0" to="-8106584#1"/>
    <trip id="334" depart="345.00" from="-8106589#0" to="9532165#0"/>
    <trip id="335" depart="347.00" from="-218167613#0" to="-107913067#2"/>
    <trip id="336" depart="348.00" from="8098300#4" to="-8106567#6"/>
    <trip id="337" depart="348.00" from="299672710#3" to="8098300#0"/>
    <trip id="338" depart="348.00" from="885785076" to="134997252#4"/>
    <trip id="339" depart="350.00" from="121429642#1" to="289666159#1"/>
    <trip id="340" depart="351.00" from="59612433#0" to="134997252#6"/>
    <trip id="341" depart="352.00" from="-683259340#1" to="27885682#8"/>
    <trip id="342" depart="354.00" from="-8106580#0" to="-8106560#2"/>
    <trip id="343" depart="356.00" from="683261387#0" to="134997252#4"/>
    <trip id="344" depart="357.00" from="-218521175#2" to="8106576#0"/>
    <trip id="345" depart="359.00" from="-299672706#0" to="-8098301#2"/>
    <trip id="346" depart="360.00" from="4695356#3" to="299672710#2"/>
    <trip id="347" depart="361.00" from="-299672707#0" to="-134997252#5"/>
    <trip id="348" depart="361.00" from="8106576#3" to="253055156#2"/>
    <trip id="349" depart="361.00" from="10597967#2" to="518694399"/>
    <trip id="350" depart="361.00" from="-8106576#2" to="-289562805#2"/>
    <trip id="351" depart="362.00" from="299672709#1" to="8106575#1"/>
    <trip id="352" depart="364.00" from="683261387#1" to="8106567#5"/>
    <trip id="353" depart="364.00" from="884977113" to="9532163#2"/>
    <trip id="354" depart="365.00" from="1070008774" to="-8106589#0"/>
    <trip id="355" depart="365.00" from="10597941#0" to="10600965#0"/>
    <trip id="356" depart="367.00" from="-10600957#4" to="253055143#6"/>
    <trip id="358" depart="370.00" from="107919321#1" to="518694400#4"/>
    <trip id="359" depart="371.00" from="914857392" to="234795225"/>
    <trip id="360" depart="373.00" from="-10600955#2" to="521581073#2"/>
    <trip id="361" depart="373.00" from="-290471790#0" to="-111627124"/>
    <trip id="362" depart="374.00" from="289666167#0" to="4543344#6"/>
    <trip id="363" depart="376.00" from="-289563510#1" to="-8106589#2"/>
    <trip id="365" depart="377.00" from="8106567#6" to="518698883#1"/>
    <trip id="366" depart="378.00" from="8098301#2" to="-234350985#1"/>
    <trip id="367" depart="378.00" from="253055175#0" to="8106560#2"/>
    <trip id="368" depart="379.00" from="885486347" to="-683259340#0"/>
    <trip id="369" depart="379.00" from="59612433#1" to="-10600965#2"/>
    <trip id="370" depart="380.00" from="-107914741#0" to="-884984288"/>
    <trip id="371" depart="381.00" from="4695356#1" to="253055143#3"/>
    <trip id="372" depart="385.00" from="8098293#0" to="4543344#0"/>
    <trip id="373" depart="386.00" from="1026252225#0" to="-253055156#1"/>
    <trip id="374" depart="386.00" from="10597967#5" to="884984287#1"/>
    <trip id="375" depart="388.00" from="-10600965#2" to="518694400#4"/>
    <trip id="377" depart="389.00" from="253055142" to="-280302516#1"/>
    <trip id="378" depart="389.00" from="4695356#6" to="10600953#0"/>
    <trip id="379" depart="390.00" from="253055175#0" to="-10600955#2"/>
    <trip id="380" depart="390.00" from="136554478#3" to="518698882"/>
    <trip id="382" depart="391.00" from="299672710#1" to="107913067#2"/>
    <trip id="383" depart="392.00" from="-884984287#1" to="970176923"/>
    <trip id="384" depart="392.00" from="74503246" to="-5109322"/>
    <trip id="385" depart="393.00" from="9532158#2" to="885837724"/>
    <trip id="386" depart="393.00" from="4515353#1" to="-136554478#5"/>
    <trip id="388" depart="394.00" from="27885682#1" to="299672710#3"/>
    <trip id="389" depart="394.00" from="-314943015#1" to="-8106584#0"/>
    <trip id="390" depart="394.00" from="299672706#2" to="-10597937#2"/>
    <trip id="391" depart="395.00" from="8106575#0" to="299672709#0"/>
    <trip id="392" depart="395.00" from="-9532158#1" to="8106576#0"/>
    <trip id="393" depart="396.00" from="-8106567#4" to="253055143#1"/>
    <trip id="394" depart="397.00" from="253055145#4" to="-8106583#0"/>
    <trip id="395" depart="398.00" from="10597954#0" to="964356224#0"/>
    <trip id="396" depart="404.00" from="518694392" to="-10597941#2"/>
    <trip id="398" depart="405.00" from="508860868" to="10597956#2"/>
    <trip id="399" depart="406.00" from="978318661" to="234350985#3"/>
    <trip id="400" depart="407.00" from="-8106587#1" to="10600955#1"/>
    <trip id="402" depart="413.00" from="8106578#1" to="-8106566#0"/>
    <trip id="403" depart="413.00" from="280302520#0" to="-8106567#3"/>
    <trip id="404" depart="414.00" from="-253055175#1" to="299672709#3"/>
    <trip id="405" depart="414.00" from="8106567#3" to="314942781#2"/>
    <trip id="406" depart="414.00" from="10600957#2" to="-427918941#0"/>
    <trip id="407" depart="415.00" from="-883666865#1" to="10597941#3"/>
    <trip id="409" depart="419.00" from="-10597956#1" to="289666165#0"/>
    <trip id="410" depart="420.00" from="-521581073#2" to="-8106583#1"/>
    <trip id="411" depart="420.00" from="427918943" to="1007845796"/>
    <trip id="412" depart="420.00" from="-427918941#0" to="-964356224#0"/>
    <trip id="413" depart="423.00" from="966558214#0" to="289666165#1"/>
    <trip id="414" depart="424.00" from="10600955#3" to="1369965210"/>
    <trip id="415" depart="425.00" from="121429642#1" to="196374467#2"/>
    <trip id="416" depart="427.00" from="885837724" to="4515353#4"/>
    <trip id="417" depart="427.00" from="115779437#0" to="-10600955#0"/>
    <trip id="418" depart="428.00" from="289666156#1" to="234005798"/>
    <trip id="419" depart="429.00" from="289563510#0" to="1007845794"/>
    <trip id="420" depart="430.00" from="10600967" to="-427918941#1"/>
    <trip id="421" depart="433.00" from="116650167#0" to="1026252225#3"/>
    <trip id="422" depart="436.00" from="885785076" to="27885682#2"/>
    <trip id="423" depart="437.00" from="-136554478#6" to="8098291"/>
    <trip id="424" depart="437.00" from="74503246" to="8106581#3"/>
    <trip id="425" depart="437.00" from="-253055175#0" to="-280302516#0"/>
    <trip id="427" depart="439.00" from="4543344#11" to="8098300#0"/>
    <trip id="428" depart="441.00" from="-10597949#0" to="4695356#7"/>
    <trip id="430" depart="445.00" from="8106580#2" to="-107918574#0"/>
    <trip id="431" depart="445.00" from="289666159#1" to="666016330"/>
    <trip id="432" depart="446.00" from="-9874688#1" to="518698883#3"/>
    <trip id="433" depart="446.00" from="884984287#0" to="518693512#3"/>
    <trip id="435" depart="447.00" from="970176922" to="683261387#0"/>
    <trip id="436" depart="447.00" from="136554478#6" to="8106568#0"/>
    <trip id="437" depart="448.00" from="-136555995#1" to="-314943015#0"/>
    <trip id="438" depart="449.00" from="-253055166#2" to="9532132#1"/>
    <trip id="439" depart="451.00" from="885428104" to="107919321#0"/>
    <trip id="440" depart="452.00" from="883666865#0" to="290471790#2"/>
    <trip id="441" depart="452.00" from="299672706#2" to="10597967#7"/>