<?xml version="1.0" encoding="UTF-8"?>

<!-- generated on 2025-04-09 20:08:25 by Eclipse SUMO netconvert Version 1.18.0
<configuration xmlns:xsi="http://www.w3.org/2001/XMLSchema-instance" xsi:noNamespaceSchemaLocation="http://sumo.dlr.de/xsd/netconvertConfiguration.xsd">

    <input>
        <osm-files value="bh_filtered.osm"/>
    </input>

    <output>
        <output-file value="net/bh.net.xml"/>
    </output>

    <projection>
        <proj.utm value="true"/>
    </projection>

</configuration>
-->

<net version="1.16" junctionCornerDetail="5" limitTurnSpeed="5.50" xmlns:xsi="http://www.w3.org/2001/XMLSchema-instance" xsi:noNamespaceSchemaLocation="http://sumo.dlr.de/xsd/net_file.xsd">

    <location netOffset="-608351.26,2205806.35" convBoundary="0.00,0.00,5520.53,4176.96" origBoundary="-43.964805,-19.945609,-43.912024,-19.907934" projParameter="+proj=utm +zone=23 +ellps=WGS84 +datum=WGS84 +units=m +no_defs"/>

    <type id="highway.cycleway" priority="1" numLanes="1" speed="5.56" allow="bicycle" oneway="0" width="2.00"/>
    <type id="highway.footway" priority="1" numLanes="1" speed="2.78" allow="pedestrian" oneway="1" width="2.00"/>
    <type id="highway.pedestrian" priority="1" numLanes="1" speed="2.78" allow="pedestrian" oneway="1" width="2.00"/>
    <type id="highway.primary" priority="12" numLanes="2" speed="27.78" disallow="tram rail_urban rail rail_electric rail_fast ship" oneway="0"/>
    <type id="highway.primary_link" priority="7" numLanes="1" speed="22.22" disallow="tram rail_urban rail rail_electric rail_fast ship" oneway="0"/>
    <type id="highway.residential" priority="3" numLanes="1" speed="13.89" disallow="tram rail_urban rail rail_electric rail_fast ship" oneway="0"/>
    <type id="highway.secondary" priority="11" numLanes="1" speed="27.78" disallow="tram rail_urban rail rail_electric rail_fast ship" oneway="0"/>
    <type id="highway.secondary_link" priority="6" numLanes="1" speed="22.22" disallow="tram rail_urban rail rail_electric rail_fast ship" oneway="0"/>
    <type id="highway.service" priority="1" numLanes="1" speed="5.56" allow="pedestrian delivery bicycle" oneway="0"/>
    <type id="highway.tertiary" priority="10" numLanes="1" speed="22.22" disallow="tram rail_urban rail rail_electric rail_fast ship" oneway="0"/>
    <type id="highway.tertiary_link" priority="5" numLanes="1" speed="22.22" disallow="tram rail_urban rail rail_electric rail_fast ship" oneway="0"/>
    <type id="highway.trunk" priority="13" numLanes="2" speed="27.78" disallow="pedestrian bicycle tram rail_urban rail rail_electric rail_fast ship" oneway="0"/>

    <edge id=":1015318028_0" function="internal">
        <lane id=":1015318028_0_0" index="0" disallow="tram rail_urban rail rail_electric rail_fast ship" speed="11.11" length="0.29" shape="3059.85,1961.06 3059.78,1960.78"/>
    </edge>
    <edge id=":10311559886_0" function="internal">
        <lane id=":10311559886_0_0" index="0" disallow="tram rail_urban rail rail_electric rail_fast ship" speed="3.65" length="4.67" shape="3901.85,449.07 3902.78,447.96 3903.61,447.65 3904.37,448.13 3905.04,449.41"/>
    </edge>
    <edge id=":10603744191_0" function="internal">
        <lane id=":10603744191_0_0" index="0" disallow="tram rail_urban rail rail_electric rail_fast ship" speed="3.65" length="4.67" shape="3071.93,3660.75 3072.73,3659.55 3073.53,3659.15 3074.33,3659.55 3075.13,3660.75"/>
    </edge>
    <edge id=":10603744192_0" function="internal">
        <lane id=":10603744192_0_0" index="0" disallow="tram rail_urban rail rail_electric rail_fast ship" speed="3.65" length="4.67" shape="3075.16,3673.63 3074.36,3674.83 3073.56,3675.23 3072.76,3674.83 3071.96,3673.64"/>
    </edge>
    <edge id=":10603744193_0" function="internal">
        <lane id=":10603744193_0_0" index="0" disallow="tram rail_urban rail rail_electric rail_fast ship" speed="3.65" length="4.67" shape="3223.26,3675.92 3222.79,3677.28 3222.12,3677.87 3221.24,3677.69 3220.16,3676.73"/>
    </edge>
    <edge id=":10603744194_0" function="internal">
        <lane id=":10603744194_0_0" index="0" disallow="tram rail_urban rail rail_electric rail_fast ship" speed="3.65" length="4.67" shape="3215.64,3659.98 3216.10,3658.62 3216.77,3658.02 3217.64,3658.19 3218.73,3659.14"/>
    </edge>
    <edge id=":10603744196_0" function="internal">
        <lane id=":10603744196_0_0" index="0" disallow="tram rail_urban rail rail_electric rail_fast ship" speed="3.65" length="4.67" shape="3224.14,3667.64 3222.94,3666.83 3222.55,3666.03 3222.95,3665.23 3224.15,3664.44"/>
    </edge>
    <edge id=":10603744197_0" function="internal">
        <lane id=":10603744197_0_0" index="0" disallow="tram rail_urban rail rail_electric rail_fast ship" speed="3.65" length="4.67" shape="3354.21,3665.04 3355.41,3665.84 3355.81,3666.64 3355.40,3667.44 3354.20,3668.24"/>
    </edge>
    <edge id=":10603744199_0" function="internal">
        <lane id=":10603744199_0_0" index="0" disallow="tram rail_urban rail rail_electric rail_fast ship" speed="3.65" length="4.67" shape="3366.75,3659.34 3366.24,3660.69 3365.55,3661.26 3364.68,3661.05 3363.64,3660.06"/>
    </edge>
    <edge id=":10603744200_0" function="internal">
        <lane id=":10603744200_0_0" index="0" disallow="tram rail_urban rail rail_electric rail_fast ship" speed="3.65" length="4.67" shape="3362.88,3656.77 3363.39,3655.43 3364.08,3654.86 3364.95,3655.07 3366.00,3656.06"/>
    </edge>
    <edge id=":10603796803_0" function="internal">
        <lane id=":10603796803_0_0" index="0" disallow="tram rail_urban rail rail_electric rail_fast ship" speed="22.22" length="0.28" shape="2934.51,3670.83 2934.57,3671.07"/>
        <lane id=":10603796803_0_1" index="1" disallow="tram rail_urban rail rail_electric rail_fast ship" speed="22.22" length="0.28" shape="2931.40,3671.61 2931.48,3671.91"/>
    </edge>
    <edge id=":10603796804_0" function="internal">
        <lane id=":10603796804_0_0" index="0" disallow="tram rail_urban rail rail_electric rail_fast ship" speed="22.22" length="0.29" shape="2930.98,3656.77 2931.04,3657.03"/>
        <lane id=":10603796804_0_1" index="1" disallow="tram rail_urban rail rail_electric rail_fast ship" speed="22.22" length="0.29" shape="2927.86,3657.50 2927.94,3657.81"/>
    </edge>
    <edge id=":10603799265_0" function="internal">
        <lane id=":10603799265_0_0" index="0" disallow="tram rail_urban rail rail_electric rail_fast ship" speed="7.28" length="7.35" shape="3447.63,3522.98 3446.59,3522.04 3445.88,3520.62 3445.50,3518.70 3445.45,3516.30"/>
    </edge>
    <edge id=":10603799269_0" function="internal">
        <lane id=":10603799269_0_0" index="0" disallow="tram rail_urban rail rail_electric rail_fast ship" speed="3.98" length="3.86" shape="3446.17,3500.05 3446.37,3498.90 3446.86,3498.31 3447.62,3498.27 3448.66,3498.80"/>
    </edge>
    <edge id=":10603799275_0" function="internal">
        <lane id=":10603799275_0_0" index="0" disallow="tram rail_urban rail rail_electric rail_fast ship" speed="13.89" length="0.37" shape="3620.31,3540.49 3620.29,3540.43 3620.28,3540.40 3620.27,3540.36 3620.25,3540.31"/>
        <lane id=":10603799275_0_1" index="1" disallow="tram rail_urban rail rail_electric rail_fast ship" speed="13.89" length="0.37" shape="3623.39,3539.64 3623.35,3539.48 3623.32,3539.37 3623.28,3539.27 3623.22,3539.12"/>
    </edge>
    <edge id=":10603799277_0" function="internal">
        <lane id=":10603799277_0_0" index="0" disallow="tram rail_urban rail rail_electric rail_fast ship" speed="16.67" length="0.30" shape="3643.18,3563.50 3642.89,3563.58"/>
        <lane id=":10603799277_0_1" index="1" disallow="tram rail_urban rail rail_electric rail_fast ship" speed="16.67" length="0.30" shape="3642.39,3560.40 3642.10,3560.48"/>
        <lane id=":10603799277_0_2" index="2" disallow="tram rail_urban rail rail_electric rail_fast ship" speed="16.67" length="0.30" shape="3641.60,3557.30 3641.31,3557.38"/>
    </edge>
    <edge id=":10603819355_0" function="internal">
        <lane id=":10603819355_0_0" index="0" disallow="tram rail_urban rail rail_electric rail_fast ship" speed="16.67" length="0.23" shape="3780.85,3507.96 3780.63,3508.32"/>
        <lane id=":10603819355_0_1" index="1" disallow="tram rail_urban rail rail_electric rail_fast ship" speed="16.67" length="0.23" shape="3778.09,3506.34 3778.00,3506.50"/>
        <lane id=":10603819355_0_2" index="2" disallow="tram rail_urban rail rail_electric rail_fast ship" speed="16.67" length="0.23" shape="3775.32,3504.73 3775.37,3504.67"/>
    </edge>
    <edge id=":10603819365_0" function="internal">
        <lane id=":10603819365_0_0" index="0" disallow="tram rail_urban rail rail_electric rail_fast ship" speed="16.67" length="4.98" shape="3907.14,3291.57 3904.63,3295.85"/>
        <lane id=":10603819365_0_1" index="1" disallow="tram rail_urban rail rail_electric rail_fast ship" speed="16.67" length="4.98" shape="3904.38,3289.94 3901.86,3294.24"/>
        <lane id=":10603819365_0_2" index="2" disallow="tram rail_urban rail rail_electric rail_fast ship" speed="16.67" length="4.98" shape="3901.62,3288.32 3899.10,3292.63"/>
    </edge>
    <edge id=":1123482298_0" function="internal">
        <lane id=":1123482298_0_0" index="0" disallow="tram rail_urban rail rail_electric rail_fast ship" speed="16.67" length="0.36" shape="3560.28,1534.79 3560.03,1535.20"/>
        <lane id=":1123482298_0_1" index="1" disallow="tram rail_urban rail rail_electric rail_fast ship" speed="16.67" length="0.36" shape="3557.50,1533.19 3557.30,1533.54"/>
        <lane id=":1123482298_0_2" index="2" disallow="tram rail_urban rail rail_electric rail_fast ship" speed="16.67" length="0.36" shape="3554.73,1531.60 3554.56,1531.88"/>
        <lane id=":1123482298_0_3" index="3" disallow="tram rail_urban rail rail_electric rail_fast ship" speed="16.67" length="0.36" shape="3551.95,1530.01 3551.83,1530.22"/>
    </edge>
    <edge id=":1168124463_0" function="internal">
        <lane id=":1168124463_0_0" index="0" disallow="tram rail_urban rail rail_electric rail_fast ship" speed="16.67" length="0.28" shape="4444.75,1725.92 4444.97,1726.18"/>
        <lane id=":1168124463_0_1" index="1" disallow="tram rail_urban rail rail_electric rail_fast ship" speed="16.67" length="0.28" shape="4442.35,1728.04 4442.53,1728.26"/>
        <lane id=":1168124463_0_2" index="2" disallow="tram rail_urban rail rail_electric rail_fast ship" speed="16.67" length="0.28" shape="4439.95,1730.16 4440.10,1730.33"/>
    </edge>
    <edge id=":12138597496_0" function="internal">
        <lane id=":12138597496_0_0" index="0" disallow="tram rail_urban rail rail_electric rail_fast ship" speed="27.78" length="0.30" shape="3037.74,3107.37 3037.48,3107.23"/>
        <lane id=":12138597496_0_1" index="1" disallow="tram rail_urban rail rail_electric rail_fast ship" speed="27.78" length="0.30" shape="3039.33,3104.60 3039.07,3104.45"/>
        <lane id=":12138597496_0_2" index="2" disallow="tram rail_urban rail rail_electric rail_fast ship" speed="27.78" length="0.30" shape="3040.93,3101.82 3040.66,3101.67"/>
    </edge>
    <edge id=":12138657008_0" function="internal">
        <lane id=":12138657008_0_0" index="0" disallow="tram rail_urban rail rail_electric rail_fast ship" speed="27.78" length="0.30" shape="2930.93,3016.40 2931.22,3016.32"/>
        <lane id=":12138657008_0_1" index="1" disallow="tram rail_urban rail rail_electric rail_fast ship" speed="27.78" length="0.30" shape="2931.82,3019.48 2932.11,3019.39"/>
        <lane id=":12138657008_0_2" index="2" disallow="tram rail_urban rail rail_electric rail_fast ship" speed="27.78" length="0.30" shape="2932.71,3022.55 2933.00,3022.47"/>
    </edge>
    <edge id=":12138657013_0" function="internal">
        <lane id=":12138657013_0_0" index="0" disallow="tram rail_urban rail rail_electric rail_fast ship" speed="9.71" length="0.84" shape="2883.29,3021.80 2884.51,3021.89"/>
        <lane id=":12138657013_0_1" index="1" disallow="tram rail_urban rail rail_electric rail_fast ship" speed="27.78" length="0.84" shape="2884.77,3018.96 2884.97,3018.72"/>
        <lane id=":12138657013_0_2" index="2" disallow="tram rail_urban rail rail_electric rail_fast ship" speed="8.85" length="0.84" shape="2886.25,3016.12 2885.43,3015.55"/>
    </edge>
    <edge id=":12140720060_0" function="internal">
        <lane id=":12140720060_0_0" index="0" disallow="tram rail_urban rail rail_electric rail_fast ship" speed="16.67" length="3.11" shape="2537.11,2800.42 2539.63,2801.85"/>
        <lane id=":12140720060_0_1" index="1" disallow="tram rail_urban rail rail_electric rail_fast ship" speed="16.67" length="3.11" shape="2535.47,2803.17 2538.18,2804.70"/>
        <lane id=":12140720060_0_2" index="2" disallow="tram rail_urban rail rail_electric rail_fast ship" speed="16.67" length="3.11" shape="2533.84,2805.92 2536.73,2807.56"/>
    </edge>
    <edge id=":12140751113_0" function="internal">
        <lane id=":12140751113_0_0" index="0" disallow="tram rail_urban rail rail_electric rail_fast ship" speed="16.67" length="3.51" shape="2530.45,2819.07 2527.41,2817.30"/>
        <lane id=":12140751113_0_1" index="1" disallow="tram rail_urban rail rail_electric rail_fast ship" speed="16.67" length="3.51" shape="2532.06,2816.30 2529.02,2814.53"/>
        <lane id=":12140751113_0_2" index="2" disallow="tram rail_urban rail rail_electric rail_fast ship" speed="16.67" length="3.51" shape="2533.66,2813.53 2530.63,2811.77"/>
    </edge>
    <edge id=":12140751117_0" function="internal">
        <lane id=":12140751117_0_0" index="0" disallow="tram rail_urban rail rail_electric rail_fast ship" speed="16.67" length="5.00" shape="2417.95,2753.53 2413.63,2751.01"/>
        <lane id=":12140751117_0_1" index="1" disallow="tram rail_urban rail rail_electric rail_fast ship" speed="16.67" length="5.00" shape="2419.56,2750.76 2415.24,2748.24"/>
        <lane id=":12140751117_0_2" index="2" disallow="tram rail_urban rail rail_electric rail_fast ship" speed="16.67" length="5.00" shape="2421.17,2748.00 2416.85,2745.48"/>
    </edge>
    <edge id=":12140751122_0" function="internal">
        <lane id=":12140751122_0_0" index="0" disallow="tram rail_urban rail rail_electric rail_fast ship" speed="22.22" length="0.15" shape="2370.02,2735.30 2370.12,2735.27"/>
        <lane id=":12140751122_0_1" index="1" disallow="tram rail_urban rail rail_electric rail_fast ship" speed="22.22" length="0.15" shape="2369.19,2732.21 2369.34,2732.17"/>
        <lane id=":12140751122_0_2" index="2" disallow="tram rail_urban rail rail_electric rail_fast ship" speed="22.22" length="0.15" shape="2368.36,2729.12 2368.56,2729.06"/>
    </edge>
    <edge id=":12140751125_0" function="internal">
        <lane id=":12140751125_0_0" index="0" disallow="tram rail_urban rail rail_electric rail_fast ship" speed="16.67" length="5.08" shape="2374.46,2703.64 2378.82,2706.25"/>
        <lane id=":12140751125_0_1" index="1" disallow="tram rail_urban rail rail_electric rail_fast ship" speed="16.67" length="5.08" shape="2372.81,2706.38 2377.17,2708.99"/>
        <lane id=":12140751125_0_2" index="2" disallow="tram rail_urban rail rail_electric rail_fast ship" speed="16.67" length="5.08" shape="2371.17,2709.12 2375.52,2711.74"/>
    </edge>
    <edge id=":12142473805_0" function="internal">
        <lane id=":12142473805_0_0" index="0" disallow="tram rail_urban rail rail_electric rail_fast ship" speed="22.22" length="2.03" shape="2220.15,2605.27 2219.77,2603.31"/>
        <lane id=":12142473805_0_1" index="1" disallow="tram rail_urban rail rail_electric rail_fast ship" speed="22.22" length="2.03" shape="2217.01,2605.91 2216.63,2603.92"/>
        <lane id=":12142473805_0_2" index="2" disallow="tram rail_urban rail rail_electric rail_fast ship" speed="22.22" length="2.03" shape="2213.88,2606.55 2213.48,2604.52"/>
    </edge>
    <edge id=":12142473814_0" function="internal">
        <lane id=":12142473814_0_0" index="0" disallow="tram rail_urban rail rail_electric rail_fast ship" speed="16.67" length="4.66" shape="2133.03,2587.96 2129.00,2585.62"/>
        <lane id=":12142473814_0_1" index="1" disallow="tram rail_urban rail rail_electric rail_fast ship" speed="16.67" length="4.66" shape="2134.64,2585.20 2130.61,2582.86"/>
        <lane id=":12142473814_0_2" index="2" disallow="tram rail_urban rail rail_electric rail_fast ship" speed="16.67" length="4.66" shape="2136.25,2582.43 2132.22,2580.09"/>
    </edge>
    <edge id=":12142473821_0" function="internal">
        <lane id=":12142473821_0_0" index="0" disallow="tram rail_urban rail rail_electric rail_fast ship" speed="27.78" length="5.01" shape="2112.35,2444.76 2109.89,2449.31"/>
        <lane id=":12142473821_0_1" index="1" disallow="tram rail_urban rail rail_electric rail_fast ship" speed="27.78" length="5.01" shape="2109.50,2443.31 2107.11,2447.72"/>
        <lane id=":12142473821_0_2" index="2" disallow="tram rail_urban rail rail_electric rail_fast ship" speed="27.78" length="5.01" shape="2106.65,2441.87 2104.34,2446.13"/>
    </edge>
    <edge id=":12142473823_0" function="internal">
        <lane id=":12142473823_0_0" index="0" disallow="tram rail_urban rail rail_electric rail_fast ship" speed="27.78" length="4.71" shape="2090.34,2438.13 2092.75,2434.07"/>
        <lane id=":12142473823_0_1" index="1" disallow="tram rail_urban rail rail_electric rail_fast ship" speed="27.78" length="4.71" shape="2093.10,2439.76 2095.50,2435.70"/>
        <lane id=":12142473823_0_2" index="2" disallow="tram rail_urban rail rail_electric rail_fast ship" speed="27.78" length="4.71" shape="2095.85,2441.39 2098.25,2437.33"/>
    </edge>
    <edge id=":12142597971_0" function="internal">
        <lane id=":12142597971_0_0" index="0" disallow="tram rail_urban rail rail_electric rail_fast ship" speed="27.78" length="0.63" shape="2010.69,2433.54 2010.69,2433.48 2010.68,2433.44 2010.68,2433.39 2010.66,2433.33"/>
        <lane id=":12142597971_0_1" index="1" disallow="tram rail_urban rail rail_electric rail_fast ship" speed="27.78" length="0.63" shape="2013.88,2433.29 2013.87,2433.11 2013.85,2432.98 2013.83,2432.85 2013.79,2432.67"/>
        <lane id=":12142597971_0_2" index="2" disallow="tram rail_urban rail rail_electric rail_fast ship" speed="27.78" length="0.63" shape="2017.08,2433.05 2017.05,2432.74 2017.03,2432.52 2016.99,2432.31 2016.92,2432.00"/>
    </edge>
    <edge id=":12142597974_0" function="internal">
        <lane id=":12142597974_0_0" index="0" disallow="tram rail_urban rail rail_electric rail_fast ship" speed="27.78" length="0.30" shape="2086.01,2621.95 2086.09,2622.21"/>
        <lane id=":12142597974_0_1" index="1" disallow="tram rail_urban rail rail_electric rail_fast ship" speed="27.78" length="0.30" shape="2082.95,2622.90 2083.04,2623.18"/>
        <lane id=":12142597974_0_2" index="2" disallow="tram rail_urban rail rail_electric rail_fast ship" speed="27.78" length="0.30" shape="2079.90,2623.85 2079.99,2624.16"/>
    </edge>
    <edge id=":12142597984_0" function="internal">
        <lane id=":12142597984_0_0" index="0" disallow="tram rail_urban rail rail_electric rail_fast ship" speed="16.67" length="5.07" shape="1906.56,2454.86 1902.17,2452.20"/>
        <lane id=":12142597984_0_1" index="1" disallow="tram rail_urban rail rail_electric rail_fast ship" speed="16.67" length="5.07" shape="1908.19,2452.10 1903.85,2449.48"/>
        <lane id=":12142597984_0_2" index="2" disallow="tram rail_urban rail rail_electric rail_fast ship" speed="16.67" length="5.07" shape="1909.83,2449.35 1905.53,2446.75"/>
    </edge>
    <edge id=":12142667457_0" function="internal">
        <lane id=":12142667457_0_0" index="0" disallow="tram rail_urban rail rail_electric rail_fast ship" speed="27.78" length="5.03" shape="1850.24,2398.20 1854.62,2400.68"/>
        <lane id=":12142667457_0_1" index="1" disallow="tram rail_urban rail rail_electric rail_fast ship" speed="27.78" length="5.03" shape="1848.67,2400.99 1853.05,2403.46"/>
        <lane id=":12142667457_0_2" index="2" disallow="tram rail_urban rail rail_electric rail_fast ship" speed="27.78" length="5.03" shape="1847.09,2403.77 1851.47,2406.25"/>
    </edge>
    <edge id=":12142985010_0" function="internal">
        <lane id=":12142985010_0_0" index="0" disallow="tram rail_urban rail rail_electric rail_fast ship" speed="27.78" length="5.75" shape="1221.55,2029.07 1226.39,2031.95"/>
        <lane id=":12142985010_0_1" index="1" disallow="tram rail_urban rail rail_electric rail_fast ship" speed="27.78" length="5.75" shape="1219.88,2031.80 1224.82,2034.74"/>
        <lane id=":12142985010_0_2" index="2" disallow="tram rail_urban rail rail_electric rail_fast ship" speed="27.78" length="5.75" shape="1218.22,2034.54 1223.25,2037.53"/>
    </edge>
    <edge id=":12143004775_0" function="internal">
        <lane id=":12143004775_0_0" index="0" disallow="tram rail_urban rail rail_electric rail_fast ship" speed="16.67" length="4.68" shape="877.32,1858.06 873.46,1855.86"/>
        <lane id=":12143004775_0_1" index="1" disallow="tram rail_urban rail rail_electric rail_fast ship" speed="16.67" length="4.68" shape="878.98,1855.32 874.98,1853.04"/>
        <lane id=":12143004775_0_2" index="2" disallow="tram rail_urban rail rail_electric rail_fast ship" speed="16.67" length="4.68" shape="880.63,1852.58 876.49,1850.22"/>
        <lane id=":12143004775_0_3" index="3" disallow="tram rail_urban rail rail_electric rail_fast ship" speed="16.67" length="4.68" shape="882.28,1849.84 878.01,1847.40"/>
    </edge>
    <edge id=":12143004777_0" function="internal">
        <lane id=":12143004777_0_0" index="0" disallow="tram rail_urban rail rail_electric rail_fast ship" speed="16.67" length="5.14" shape="886.84,1831.86 891.35,1834.53"/>
        <lane id=":12143004777_0_1" index="1" disallow="tram rail_urban rail rail_electric rail_fast ship" speed="16.67" length="5.14" shape="885.24,1834.63 889.69,1837.27"/>
        <lane id=":12143004777_0_2" index="2" disallow="tram rail_urban rail rail_electric rail_fast ship" speed="16.67" length="5.14" shape="883.64,1837.40 888.03,1840.00"/>
        <lane id=":12143004777_0_3" index="3" disallow="tram rail_urban rail rail_electric rail_fast ship" speed="16.67" length="5.14" shape="882.04,1840.17 886.37,1842.74"/>
    </edge>
    <edge id=":12195305731_0" function="internal">
        <lane id=":12195305731_0_0" index="0" disallow="tram rail_urban rail rail_electric rail_fast ship" speed="19.63" length="4.96" shape="2884.31,3021.86 2882.55,3021.54 2881.37,3021.16 2880.26,3020.59 2878.68,3019.71"/>
        <lane id=":12195305731_0_1" index="1" disallow="tram rail_urban rail rail_electric rail_fast ship" speed="17.75" length="4.96" shape="2884.77,3018.69 2883.33,3018.43 2882.38,3018.10 2881.48,3017.61 2880.20,3016.89"/>
        <lane id=":12195305731_0_2" index="2" disallow="tram rail_urban rail rail_electric rail_fast ship" speed="15.65" length="4.96" shape="2885.23,3015.52 2884.12,3015.31 2883.39,3015.03 2882.70,3014.64 2881.71,3014.07"/>
    </edge>
    <edge id=":12195305737_0" function="internal">
        <lane id=":12195305737_0_0" index="0" disallow="tram rail_urban rail rail_electric rail_fast ship" speed="27.78" length="0.38" shape="2706.15,2950.73 2706.27,2950.51"/>
        <lane id=":12195305737_0_1" index="1" disallow="tram rail_urban rail rail_electric rail_fast ship" speed="27.78" length="0.38" shape="2708.92,2952.34 2709.08,2952.04"/>
        <lane id=":12195305737_0_2" index="2" disallow="tram rail_urban rail rail_electric rail_fast ship" speed="27.78" length="0.38" shape="2711.68,2953.95 2711.89,2953.58"/>
        <lane id=":12195305737_0_3" index="3" disallow="tram rail_urban rail rail_electric rail_fast ship" speed="27.78" length="0.38" shape="2714.45,2955.55 2714.70,2955.11"/>
    </edge>
    <edge id=":12195305761_0" function="internal">
        <lane id=":12195305761_0_0" index="0" disallow="tram rail_urban rail rail_electric rail_fast ship" speed="22.22" length="0.57" shape="2379.93,2697.72 2380.04,2697.60 2380.11,2697.50 2380.17,2697.40 2380.23,2697.24"/>
    </edge>
    <edge id=":12195305768_0" function="internal">
        <lane id=":12195305768_0_0" index="0" disallow="tram rail_urban rail rail_electric rail_fast ship" speed="16.67" length="4.63" shape="2292.96,2680.92 2289.23,2678.61"/>
        <lane id=":12195305768_0_1" index="1" disallow="tram rail_urban rail rail_electric rail_fast ship" speed="16.67" length="4.63" shape="2294.76,2678.28 2290.83,2675.83"/>
        <lane id=":12195305768_0_2" index="2" disallow="tram rail_urban rail rail_electric rail_fast ship" speed="16.67" length="4.63" shape="2296.56,2675.64 2292.42,2673.06"/>
    </edge>
    <edge id=":12195305781_0" function="internal">
        <lane id=":12195305781_0_0" index="0" disallow="tram rail_urban rail rail_electric rail_fast ship" speed="27.78" length="0.51" shape="2149.53,2571.10 2149.57,2571.13 2149.60,2571.15 2149.63,2571.16 2149.67,2571.19"/>
        <lane id=":12195305781_0_1" index="1" disallow="tram rail_urban rail rail_electric rail_fast ship" speed="27.78" length="0.51" shape="2147.67,2573.70 2147.79,2573.79 2147.88,2573.85 2147.97,2573.90 2148.10,2573.98"/>
        <lane id=":12195305781_0_2" index="2" disallow="tram rail_urban rail rail_electric rail_fast ship" speed="27.78" length="0.51" shape="2145.81,2576.31 2146.02,2576.45 2146.16,2576.55 2146.31,2576.64 2146.53,2576.76"/>
    </edge>
    <edge id=":12384453156_0" function="internal">
        <lane id=":12384453156_0_0" index="0" disallow="tram rail_urban rail rail_electric rail_fast ship" speed="16.67" length="5.01" shape="4700.74,2191.23 4699.45,2186.39"/>
        <lane id=":12384453156_0_1" index="1" disallow="tram rail_urban rail rail_electric rail_fast ship" speed="16.67" length="5.01" shape="4703.83,2190.41 4702.54,2185.57"/>
        <lane id=":12384453156_0_2" index="2" disallow="tram rail_urban rail rail_electric rail_fast ship" speed="16.67" length="5.01" shape="4706.92,2189.58 4705.64,2184.75"/>
    </edge>
    <edge id=":12384453158_0" function="internal">
        <lane id=":12384453158_0_0" index="0" disallow="tram rail_urban rail rail_electric rail_fast ship" speed="16.67" length="5.11" shape="4731.68,2231.79 4732.98,2236.73"/>
        <lane id=":12384453158_0_1" index="1" disallow="tram rail_urban rail rail_electric rail_fast ship" speed="16.67" length="5.11" shape="4728.59,2232.60 4729.89,2237.55"/>
        <lane id=":12384453158_0_2" index="2" disallow="tram rail_urban rail rail_electric rail_fast ship" speed="16.67" length="5.11" shape="4725.49,2233.42 4726.80,2238.37"/>
    </edge>
    <edge id=":12390109886_0" function="internal">
        <lane id=":12390109886_0_0" index="0" disallow="tram rail_urban rail rail_electric rail_fast ship" speed="27.78" length="5.00" shape="1980.24,2671.56 1977.73,2675.88"/>
        <lane id=":12390109886_0_1" index="1" disallow="tram rail_urban rail rail_electric rail_fast ship" speed="27.78" length="5.00" shape="1977.48,2669.95 1974.96,2674.28"/>
        <lane id=":12390109886_0_2" index="2" disallow="tram rail_urban rail rail_electric rail_fast ship" speed="27.78" length="5.00" shape="1974.71,2668.35 1972.20,2672.67"/>
    </edge>
    <edge id=":12390109888_0" function="internal">
        <lane id=":12390109888_0_0" index="0" disallow="tram rail_urban rail rail_electric rail_fast ship" speed="27.78" length="5.02" shape="1953.16,2717.52 1950.57,2721.83"/>
        <lane id=":12390109888_0_1" index="1" disallow="tram rail_urban rail rail_electric rail_fast ship" speed="27.78" length="5.02" shape="1950.41,2715.88 1947.83,2720.18"/>
        <lane id=":12390109888_0_2" index="2" disallow="tram rail_urban rail rail_electric rail_fast ship" speed="27.78" length="5.02" shape="1947.67,2714.23 1945.09,2718.54"/>
    </edge>
    <edge id=":1241149542_0" function="internal">
        <lane id=":1241149542_0_0" index="0" disallow="tram rail_urban rail rail_electric rail_fast ship" speed="16.67" length="0.30" shape="3551.42,3049.17 3551.67,3049.32"/>
        <lane id=":1241149542_0_1" index="1" disallow="tram rail_urban rail rail_electric rail_fast ship" speed="16.67" length="0.30" shape="3549.79,3051.92 3550.04,3052.07"/>
        <lane id=":1241149542_0_2" index="2" disallow="tram rail_urban rail rail_electric rail_fast ship" speed="16.67" length="0.30" shape="3548.16,3054.67 3548.42,3054.83"/>
    </edge>
    <edge id=":12415462377_0" function="internal">
        <lane id=":12415462377_0_0" index="0" disallow="tram rail_urban rail rail_electric rail_fast ship" speed="11.11" length="5.00" shape="4196.66,1968.67 4199.20,1964.37"/>
        <lane id=":12415462377_0_1" index="1" disallow="tram rail_urban rail rail_electric rail_fast ship" speed="11.11" length="5.00" shape="4199.42,1970.30 4201.96,1965.99"/>
    </edge>
    <edge id=":12415577791_0" function="internal">
        <lane id=":12415577791_0_0" index="0" disallow="tram rail_urban rail rail_electric rail_fast ship" speed="3.65" length="4.67" shape="3881.80,668.31 3880.87,669.42 3880.04,669.74 3879.28,669.25 3878.61,667.98"/>
    </edge>
    <edge id=":12687626972_0" function="internal">
        <lane id=":12687626972_0_0" index="0" disallow="tram rail_urban rail rail_electric rail_fast ship" speed="3.65" length="4.67" shape="2868.14,1730.04 2866.79,1729.54 2866.22,1728.85 2866.42,1727.98 2867.40,1726.92"/>
    </edge>
    <edge id=":12687642126_0" function="internal">
        <lane id=":12687642126_0_0" index="0" disallow="tram rail_urban rail rail_electric rail_fast ship" speed="3.65" length="4.67" shape="1669.81,2184.37 1670.29,2183.01 1670.96,2182.42 1671.84,2182.61 1672.91,2183.58"/>
    </edge>
    <edge id=":12687642142_0" function="internal">
        <lane id=":12687642142_0_0" index="0" disallow="tram rail_urban rail rail_electric rail_fast ship" speed="3.65" length="4.67" shape="1926.92,2122.83 1928.29,2123.29 1928.88,2123.96 1928.71,2124.84 1927.75,2125.92"/>
    </edge>
    <edge id=":12687642167_0" function="internal">