<?xml version="1.0" encoding="UTF-8"?>

<!-- generated on 2025-04-09 23:26:04 by Eclipse SUMO netconvert Version 1.18.0
<configuration xmlns:xsi="http://www.w3.org/2001/XMLSchema-instance" xsi:noNamespaceSchemaLocation="http://sumo.dlr.de/xsd/netconvertConfiguration.xsd">

    <input>
        <osm-files value="../maps/santa_tereza.osm"/>
    </input>

    <output>
        <output-file value="../net/santa_tereza.net.xml"/>
    </output>

    <projection>
        <proj.utm value="true"/>
    </projection>

</configuration>
-->

<net version="1.16" junctionCornerDetail="5" limitTurnSpeed="5.50" xmlns:xsi="http://www.w3.org/2001/XMLSchema-instance" xsi:noNamespaceSchemaLocation="http://sumo.dlr.de/xsd/net_file.xsd">

    <location netOffset="-611587.43,2203484.78" convBoundary="0.00,0.00,3258.63,2395.73" origBoundary="-43.933842,-19.924374,-43.859121,-19.878550" projParameter="+proj=utm +zone=23 +ellps=WGS84 +datum=WGS84 +units=m +no_defs"/>

    <type id="highway.cycleway" priority="1" numLanes="1" speed="5.56" allow="bicycle" oneway="0" width="2.00"/>
    <type id="highway.footway" priority="1" numLanes="1" speed="2.78" allow="pedestrian" oneway="1" width="2.00"/>
    <type id="highway.path" priority="1" numLanes="1" speed="5.56" allow="pedestrian bicycle" oneway="0" width="2.00"/>
    <type id="highway.pedestrian" priority="1" numLanes="1" speed="2.78" allow="pedestrian" oneway="1" width="2.00"/>
    <type id="highway.primary" priority="12" numLanes="2" speed="27.78" disallow="tram rail_urban rail rail_electric rail_fast ship" oneway="0"/>
    <type id="highway.primary_link" priority="7" numLanes="1" speed="22.22" disallow="tram rail_urban rail rail_electric rail_fast ship" oneway="0"/>
    <type id="highway.residential" priority="3" numLanes="1" speed="13.89" disallow="tram rail_urban rail rail_electric rail_fast ship" oneway="0"/>
    <type id="highway.secondary" priority="11" numLanes="1" speed="27.78" disallow="tram rail_urban rail rail_electric rail_fast ship" oneway="0"/>
    <type id="highway.service" priority="1" numLanes="1" speed="5.56" allow="pedestrian delivery bicycle" oneway="0"/>
    <type id="highway.steps" priority="1" numLanes="1" speed="1.39" allow="pedestrian" oneway="1" width="2.00"/>
    <type id="highway.tertiary" priority="10" numLanes="1" speed="22.22" disallow="tram rail_urban rail rail_electric rail_fast ship" oneway="0"/>
    <type id="highway.tertiary_link" priority="5" numLanes="1" speed="22.22" disallow="tram rail_urban rail rail_electric rail_fast ship" oneway="0"/>
    <type id="highway.unclassified" priority="4" numLanes="1" speed="13.89" disallow="tram rail_urban rail rail_electric rail_fast ship" oneway="0"/>
    <type id="railway.rail" priority="20" numLanes="1" speed="44.44" allow="rail" oneway="1"/>
    <type id="railway.subway" priority="18" numLanes="1" speed="27.78" allow="rail_urban" oneway="1"/>

    <edge id=":10316180527_0" function="internal">
        <lane id=":10316180527_0_0" index="0" disallow="tram rail_urban rail rail_electric rail_fast ship" speed="13.89" length="9.40" shape="1916.11,933.07 1918.43,942.17"/>
    </edge>
    <edge id=":10316180527_1" function="internal">
        <lane id=":10316180527_1_0" index="0" allow="pedestrian delivery bicycle" speed="6.09" length="7.76" shape="1916.11,933.07 1916.60,935.78 1916.52,937.83 1915.88,939.22 1914.66,939.95"/>
    </edge>
    <edge id=":10316180527_2" function="internal">
        <lane id=":10316180527_2_0" index="0" allow="pedestrian delivery bicycle" speed="6.08" length="7.77" shape="1913.85,936.85 1915.27,936.89 1916.51,937.79 1917.56,939.55 1918.43,942.17"/>
    </edge>
    <edge id=":10316180527_3" function="internal">
        <lane id=":10316180527_3_0" index="0" allow="pedestrian delivery bicycle" speed="3.65" length="4.67" shape="1913.85,936.85 1915.21,937.32 1915.80,937.99 1915.62,938.87 1914.66,939.95"/>
    </edge>
    <edge id=":10316180528_0" function="internal">
        <lane id=":10316180528_0_0" index="0" allow="pedestrian delivery bicycle" speed="3.65" length="4.67" shape="1875.57,950.13 1874.21,949.66 1873.62,948.99 1873.80,948.11 1874.76,947.04"/>
    </edge>
    <edge id=":10316180529_0" function="internal">
        <lane id=":10316180529_0_0" index="0" allow="pedestrian delivery bicycle" speed="5.15" length="5.13" shape="1886.46,950.66 1885.88,949.34 1885.03,948.51 1883.94,948.17 1882.59,948.31"/>
    </edge>
    <edge id=":10316180529_1" function="internal">
        <lane id=":10316180529_1_0" index="0" allow="pedestrian delivery bicycle" speed="5.56" length="10.32" shape="1886.46,950.66 1886.05,947.85 1886.66,945.61 1888.26,943.94 1890.88,942.84"/>
    </edge>
    <edge id=":10316180529_2" function="internal">
        <lane id=":10316180529_2_0" index="0" allow="pedestrian delivery bicycle" speed="3.65" length="4.67" shape="1886.46,950.66 1886.89,949.28 1887.54,948.67 1888.42,948.83 1889.53,949.76"/>
    </edge>
    <edge id=":10316180529_3" function="internal">
        <lane id=":10316180529_3_0" index="0" allow="pedestrian delivery bicycle" speed="5.01" length="5.04" shape="1891.69,945.94 1890.41,946.47 1889.63,947.29 1889.33,948.38 1889.53,949.76"/>
    </edge>
    <edge id=":10316180529_4" function="internal">
        <lane id=":10316180529_4_0" index="0" allow="pedestrian delivery bicycle" speed="5.56" length="9.40" shape="1891.69,945.94 1882.59,948.31"/>
    </edge>
    <edge id=":10316180529_5" function="internal">
        <lane id=":10316180529_5_0" index="0" allow="pedestrian delivery bicycle" speed="3.65" length="4.67" shape="1891.69,945.94 1890.33,945.47 1889.74,944.79 1889.92,943.92 1890.88,942.84"/>
    </edge>
    <edge id=":10316180529_6" function="internal">
        <lane id=":10316180529_6_0" index="0" allow="pedestrian delivery bicycle" speed="5.56" length="9.40" shape="1881.79,945.21 1890.88,942.84"/>
    </edge>
    <edge id=":10316180529_7" function="internal">
        <lane id=":10316180529_7_0" index="0" allow="pedestrian delivery bicycle" speed="5.56" length="10.17" shape="1881.79,945.21 1884.50,944.91 1886.70,945.57 1888.37,947.19 1889.53,949.76"/>
    </edge>
    <edge id=":10316180529_8" function="internal">
        <lane id=":10316180529_8_0" index="0" allow="pedestrian delivery bicycle" speed="3.65" length="4.67" shape="1881.79,945.21 1883.15,945.68 1883.74,946.36 1883.55,947.23 1882.59,948.31"/>
    </edge>
    <edge id=":10316180531_0" function="internal">
        <lane id=":10316180531_0_0" index="0" allow="pedestrian delivery bicycle" speed="3.65" length="4.67" shape="1875.07,1035.45 1873.71,1034.98 1873.11,1034.31 1873.29,1033.44 1874.25,1032.35"/>
    </edge>
    <edge id=":10316623834_0" function="internal">
        <lane id=":10316623834_0_0" index="0" allow="pedestrian delivery bicycle" speed="3.65" length="4.67" shape="2909.10,1178.61 2909.12,1180.05 2908.69,1180.83 2907.81,1180.96 2906.47,1180.43"/>
    </edge>
    <edge id=":1234958249_0" function="internal">
        <lane id=":1234958249_0_0" index="0" disallow="tram rail_urban rail rail_electric rail_fast ship" speed="22.22" length="11.66" shape="1640.77,1018.11 1637.62,1016.79 1635.43,1015.96 1633.21,1015.24 1629.96,1014.19"/>
        <lane id=":1234958249_0_1" index="1" disallow="tram rail_urban rail rail_electric rail_fast ship" speed="22.22" length="11.66" shape="1642.04,1015.17 1638.81,1013.81 1636.56,1012.97 1634.28,1012.22 1630.95,1011.15"/>
    </edge>
    <edge id=":1234958249_2" function="internal">
        <lane id=":1234958249_2_0" index="0" disallow="tram rail_urban rail rail_electric rail_fast ship" speed="5.71" length="9.20" shape="1636.13,1006.65 1636.24,1009.39 1635.41,1011.06 1633.64,1011.64 1630.95,1011.15"/>
    </edge>
    <edge id=":1234958252_0" function="internal">
        <lane id=":1234958252_0_0" index="0" disallow="tram rail_urban rail rail_electric rail_fast ship" speed="6.25" length="8.27" shape="2076.19,985.38 2075.33,983.50 2073.95,982.37 2072.04,981.98 2069.59,982.33"/>
    </edge>
    <edge id=":1234958252_1" function="internal">
        <lane id=":1234958252_1_0" index="0" disallow="tram rail_urban rail rail_electric rail_fast ship" speed="13.89" length="19.29" shape="2076.19,985.38 2071.36,966.70"/>
    </edge>
    <edge id=":1234958252_2" function="internal">
        <lane id=":1234958252_2_0" index="0" disallow="tram rail_urban rail rail_electric rail_fast ship" speed="13.89" length="3.55" shape="2076.19,985.38 2076.01,981.83"/>
    </edge>
    <edge id=":1234958252_3" function="internal">
        <lane id=":1234958252_3_0" index="0" disallow="tram rail_urban rail rail_electric rail_fast ship" speed="3.65" length="1.44" shape="2076.19,985.38 2076.66,984.01"/>
    </edge>
    <edge id=":1234958252_16" function="internal">
        <lane id=":1234958252_16_0" index="0" disallow="tram rail_urban rail rail_electric rail_fast ship" speed="13.89" length="16.05" shape="2076.01,981.83 2075.97,981.01 2076.90,975.79 2078.45,970.61 2080.12,966.41"/>
    </edge>
    <edge id=":1234958252_17" function="internal">
        <lane id=":1234958252_17_0" index="0" disallow="tram rail_urban rail rail_electric rail_fast ship" speed="3.65" length="3.23" shape="2076.66,984.01 2077.33,983.42 2078.20,983.60 2079.28,984.56"/>
    </edge>
    <edge id=":1234958252_4" function="internal">
        <lane id=":1234958252_4_0" index="0" disallow="tram rail_urban rail rail_electric rail_fast ship" speed="13.89" length="17.48" shape="2083.03,967.75 2081.39,971.61 2079.90,976.04 2079.04,980.53 2079.28,984.56"/>
    </edge>
    <edge id=":1234958252_5" function="internal">
        <lane id=":1234958252_5_0" index="0" disallow="tram rail_urban rail rail_electric rail_fast ship" speed="13.63" length="20.42" shape="2083.03,967.75 2080.04,973.36 2076.80,977.66 2073.32,980.65 2069.59,982.33"/>
    </edge>
    <edge id=":1234958252_6" function="internal">
        <lane id=":1234958252_6_0" index="0" disallow="tram rail_urban rail rail_electric rail_fast ship" speed="7.53" length="20.90" shape="2083.03,967.75 2079.56,973.67 2076.46,975.47 2073.72,973.14 2071.36,966.70"/>
    </edge>
    <edge id=":1234958252_7" function="internal">
        <lane id=":1234958252_7_0" index="0" disallow="tram rail_urban rail rail_electric rail_fast ship" speed="3.65" length="4.67" shape="2083.03,967.75 2081.80,968.50 2080.91,968.53 2080.35,967.84 2080.12,966.41"/>
    </edge>
    <edge id=":1234958252_8" function="internal">
        <lane id=":1234958252_8_0" index="0" disallow="tram rail_urban rail rail_electric rail_fast ship" speed="5.46" length="10.14" shape="2074.46,965.91 2075.60,969.03 2076.93,970.16 2078.44,969.29 2080.12,966.41"/>
    </edge>
    <edge id=":1234958252_9" function="internal">
        <lane id=":1234958252_9_0" index="0" disallow="tram rail_urban rail rail_electric rail_fast ship" speed="13.89" length="19.27" shape="2074.46,965.91 2079.28,984.56"/>
    </edge>
    <edge id=":1234958252_10" function="internal">
        <lane id=":1234958252_10_0" index="0" disallow="tram rail_urban rail rail_electric rail_fast ship" speed="9.01" length="6.75" shape="2074.46,965.91 2074.89,970.65 2074.61,972.62"/>
    </edge>
    <edge id=":1234958252_11" function="internal">
        <lane id=":1234958252_11_0" index="0" disallow="tram rail_urban rail rail_electric rail_fast ship" speed="3.65" length="1.44" shape="2074.46,965.91 2073.98,967.27"/>
    </edge>
    <edge id=":1234958252_18" function="internal">
        <lane id=":1234958252_18_0" index="0" disallow="tram rail_urban rail rail_electric rail_fast ship" speed="9.01" length="11.41" shape="2074.61,972.62 2074.15,975.77 2072.35,980.07 2069.59,982.33"/>
    </edge>
    <edge id=":1234958252_19" function="internal">
        <lane id=":1234958252_19_0" index="0" disallow="tram rail_urban rail rail_electric rail_fast ship" speed="3.65" length="3.23" shape="2073.98,967.27 2073.30,967.85 2072.43,967.67 2071.36,966.70"/>
    </edge>
    <edge id=":1234958252_12" function="internal">
        <lane id=":1234958252_12_0" index="0" disallow="tram rail_urban rail rail_electric rail_fast ship" speed="8.01" length="14.12" shape="2068.77,979.24 2070.97,977.92 2072.13,975.38 2072.26,971.65 2071.36,966.70"/>
    </edge>
    <edge id=":1234958252_13" function="internal">
        <lane id=":1234958252_13_0" index="0" disallow="tram rail_urban rail rail_electric rail_fast ship" speed="12.68" length="17.62" shape="2068.77,979.24 2071.82,977.82 2074.73,975.20 2077.49,971.40 2080.12,966.41"/>
    </edge>
    <edge id=":1234958252_14" function="internal">
        <lane id=":1234958252_14_0" index="0" disallow="tram rail_urban rail rail_electric rail_fast ship" speed="7.79" length="13.43" shape="2068.77,979.24 2072.62,978.72 2075.66,979.44 2077.88,981.38 2079.28,984.56"/>
    </edge>
    <edge id=":1234958252_15" function="internal">
        <lane id=":1234958252_15_0" index="0" disallow="tram rail_urban rail rail_electric rail_fast ship" speed="3.65" length="4.67" shape="2068.77,979.24 2070.13,979.71 2070.73,980.38 2070.55,981.25 2069.59,982.33"/>
    </edge>
    <edge id=":1239297590_0" function="internal">
        <lane id=":1239297590_0_0" index="0" disallow="tram rail_urban rail rail_electric rail_fast ship" speed="5.68" length="9.23" shape="2427.24,901.72 2425.38,899.67 2423.63,899.08 2421.99,899.93 2420.46,902.24"/>
    </edge>
    <edge id=":1239297590_1" function="internal">
        <lane id=":1239297590_1_0" index="0" disallow="tram rail_urban rail rail_electric rail_fast ship" speed="13.89" length="15.41" shape="2427.24,901.72 2425.05,898.60 2422.76,895.45 2420.38,892.37 2417.95,889.43"/>
    </edge>
    <edge id=":1239297590_2" function="internal">
        <lane id=":1239297590_2_0" index="0" disallow="tram rail_urban rail rail_electric rail_fast ship" speed="3.65" length="1.44" shape="2427.24,901.72 2427.21,900.28"/>
    </edge>
    <edge id=":1239297590_9" function="internal">
        <lane id=":1239297590_9_0" index="0" disallow="tram rail_urban rail rail_electric rail_fast ship" speed="3.65" length="3.23" shape="2427.21,900.28 2427.64,899.49 2428.53,899.37 2429.87,899.90"/>
    </edge>
    <edge id=":1239297590_3" function="internal">
        <lane id=":1239297590_3_0" index="0" disallow="tram rail_urban rail rail_electric rail_fast ship" speed="13.89" length="15.75" shape="2420.37,887.34 2422.84,890.32 2425.28,893.50 2427.65,896.73 2429.87,899.90"/>
    </edge>
    <edge id=":1239297590_4" function="internal">
        <lane id=":1239297590_4_0" index="0" disallow="tram rail_urban rail rail_electric rail_fast ship" speed="10.03" length="3.69" shape="2420.37,887.34 2422.14,890.30 2422.18,890.54"/>
    </edge>
    <edge id=":1239297590_5" function="internal">
        <lane id=":1239297590_5_0" index="0" disallow="tram rail_urban rail rail_electric rail_fast ship" speed="3.65" length="1.44" shape="2420.37,887.34 2420.55,888.77"/>
    </edge>
    <edge id=":1239297590_10" function="internal">
        <lane id=":1239297590_10_0" index="0" disallow="tram rail_urban rail rail_electric rail_fast ship" speed="10.03" length="12.10" shape="2422.18,890.54 2422.74,893.77 2422.18,897.75 2420.46,902.24"/>
    </edge>
    <edge id=":1239297590_11" function="internal">
        <lane id=":1239297590_11_0" index="0" disallow="tram rail_urban rail rail_electric rail_fast ship" speed="3.65" length="3.23" shape="2420.55,888.77 2420.21,889.60 2419.34,889.82 2417.95,889.43"/>
    </edge>
    <edge id=":1239297590_6" function="internal">
        <lane id=":1239297590_6_0" index="0" disallow="tram rail_urban rail rail_electric rail_fast ship" speed="8.83" length="12.07" shape="2417.58,900.85 2418.98,897.29 2419.51,894.20 2419.17,891.58 2417.95,889.43"/>
    </edge>
    <edge id=":1239297590_7" function="internal">
        <lane id=":1239297590_7_0" index="0" disallow="tram rail_urban rail rail_electric rail_fast ship" speed="7.41" length="16.74" shape="2417.58,900.85 2420.35,896.66 2423.32,895.11 2426.49,896.19 2429.87,899.90"/>
    </edge>
    <edge id=":1239297590_8" function="internal">
        <lane id=":1239297590_8_0" index="0" disallow="tram rail_urban rail rail_electric rail_fast ship" speed="3.65" length="4.67" shape="2417.58,900.85 2418.83,900.11 2419.72,900.10 2420.27,900.81 2420.46,902.24"/>
    </edge>
    <edge id=":1239297597_0" function="internal">
        <lane id=":1239297597_0_0" index="0" disallow="tram rail_urban rail rail_electric rail_fast ship" speed="13.89" length="14.92" shape="2587.05,1285.71 2585.58,1289.15 2584.03,1292.53 2582.38,1295.87 2580.64,1299.18"/>
    </edge>
    <edge id=":1239297597_1" function="internal">
        <lane id=":1239297597_1_0" index="0" disallow="tram rail_urban rail rail_electric rail_fast ship" speed="8.14" length="4.09" shape="2587.05,1285.71 2585.07,1289.03 2584.89,1289.16"/>
    </edge>
    <edge id=":1239297597_2" function="internal">
        <lane id=":1239297597_2_0" index="0" disallow="tram rail_urban rail rail_electric rail_fast ship" speed="3.65" length="1.44" shape="2587.05,1285.71 2585.86,1286.52"/>
    </edge>
    <edge id=":1239297597_9" function="internal">
        <lane id=":1239297597_9_0" index="0" disallow="tram rail_urban rail rail_electric rail_fast ship" speed="8.14" length="10.43" shape="2584.89,1289.16 2582.43,1290.92 2579.13,1291.39 2575.17,1290.44"/>
    </edge>
    <edge id=":1239297597_10" function="internal">
        <lane id=":1239297597_10_0" index="0" disallow="tram rail_urban rail rail_electric rail_fast ship" speed="3.65" length="3.23" shape="2585.86,1286.52 2584.96,1286.58 2584.38,1285.91 2584.09,1284.50"/>
    </edge>
    <edge id=":1239297597_3" function="internal">
        <lane id=":1239297597_3_0" index="0" disallow="tram rail_urban rail rail_electric rail_fast ship" speed="6.68" length="9.43" shape="2576.33,1287.45 2578.93,1288.09 2581.09,1287.81 2582.81,1286.61 2584.09,1284.50"/>
    </edge>
    <edge id=":1239297597_4" function="internal">
        <lane id=":1239297597_4_0" index="0" disallow="tram rail_urban rail rail_electric rail_fast ship" speed="7.79" length="14.69" shape="2576.33,1287.45 2579.90,1289.47 2581.81,1292.10 2582.05,1295.33 2580.64,1299.18"/>
    </edge>
    <edge id=":1239297597_5" function="internal">
        <lane id=":1239297597_5_0" index="0" disallow="tram rail_urban rail rail_electric rail_fast ship" speed="3.65" length="4.67" shape="2576.33,1287.45 2577.16,1288.63 2577.24,1289.52 2576.58,1290.12 2575.17,1290.44"/>
    </edge>
    <edge id=":1239297597_6" function="internal">
        <lane id=":1239297597_6_0" index="0" disallow="tram rail_urban rail rail_electric rail_fast ship" speed="6.25" length="9.05" shape="2577.83,1297.66 2578.70,1295.29 2578.54,1293.29 2577.37,1291.68 2575.17,1290.44"/>
    </edge>
    <edge id=":1239297597_7" function="internal">
        <lane id=":1239297597_7_0" index="0" disallow="tram rail_urban rail rail_electric rail_fast ship" speed="13.89" length="14.58" shape="2577.83,1297.66 2579.54,1294.39 2581.14,1291.16 2582.65,1287.89 2584.09,1284.50"/>
    </edge>
    <edge id=":1239297597_8" function="internal">
        <lane id=":1239297597_8_0" index="0" disallow="tram rail_urban rail rail_electric rail_fast ship" speed="3.65" length="1.44" shape="2577.83,1297.66 2579.10,1296.98"/>
    </edge>
    <edge id=":1239297597_11" function="internal">
        <lane id=":1239297597_11_0" index="0" disallow="tram rail_urban rail rail_electric rail_fast ship" speed="3.65" length="3.23" shape="2579.10,1296.98 2579.99,1297.01 2580.51,1297.74 2580.64,1299.18"/>
    </edge>
    <edge id=":1239297608_0" function="internal">
        <lane id=":1239297608_0_0" index="0" disallow="tram rail_urban rail rail_electric rail_fast ship" speed="11.75" length="10.62" shape="2561.64,1087.04 2559.99,1084.60 2558.18,1083.46 2555.91,1082.78 2552.93,1081.73"/>
    </edge>
    <edge id=":1239297608_1" function="internal">
        <lane id=":1239297608_1_0" index="0" disallow="tram rail_urban rail rail_electric rail_fast ship" speed="12.82" length="12.70" shape="2554.22,1078.80 2557.45,1080.09 2560.26,1081.29 2562.62,1082.96 2564.51,1085.63"/>
    </edge>
    <edge id=":1239301135_0" function="internal">
        <lane id=":1239301135_0_0" index="0" disallow="tram rail_urban rail rail_electric rail_fast ship" speed="22.22" length="10.36" shape="2184.51,1234.97 2174.90,1231.09"/>
    </edge>
    <edge id=":1239301135_1" function="internal">
        <lane id=":1239301135_1_0" index="0" disallow="tram rail_urban rail rail_electric rail_fast ship" speed="3.65" length="1.44" shape="2184.51,1234.97 2183.72,1233.77"/>
    </edge>
    <edge id=":1239301135_6" function="internal">
        <lane id=":1239301135_6_0" index="0" disallow="tram rail_urban rail rail_electric rail_fast ship" speed="3.65" length="3.23" shape="2183.72,1233.77 2183.66,1232.87 2184.33,1232.29 2185.75,1232.02"/>
    </edge>
    <edge id=":1239301135_2" function="internal">
        <lane id=":1239301135_2_0" index="0" disallow="tram rail_urban rail rail_electric rail_fast ship" speed="22.22" length="10.46" shape="2176.05,1228.10 2185.75,1232.02"/>
    </edge>
    <edge id=":1239301135_3" function="internal">
        <lane id=":1239301135_3_0" index="0" disallow="tram rail_urban rail rail_electric rail_fast ship" speed="3.65" length="1.44" shape="2176.05,1228.10 2176.89,1229.28"/>
    </edge>
    <edge id=":1239301135_7" function="internal">
        <lane id=":1239301135_7_0" index="0" disallow="tram rail_urban rail rail_electric rail_fast ship" speed="3.65" length="3.23" shape="2176.89,1229.28 2176.97,1230.17 2176.31,1230.77 2174.90,1231.09"/>
    </edge>
    <edge id=":1239301135_4" function="internal">
        <lane id=":1239301135_4_0" index="0" disallow="tram rail_urban rail rail_electric rail_fast ship" speed="6.66" length="8.64" shape="2178.21,1238.12 2178.50,1235.71 2178.05,1233.74 2176.85,1232.20 2174.90,1231.09"/>
    </edge>
    <edge id=":1239301135_5" function="internal">
        <lane id=":1239301135_5_0" index="0" disallow="tram rail_urban rail rail_electric rail_fast ship" speed="6.86" length="11.32" shape="2178.21,1238.12 2179.47,1234.59 2181.15,1232.40 2183.24,1231.54 2185.75,1232.02"/>
    </edge>
    <edge id=":1239301137_0" function="internal">
        <lane id=":1239301137_0_0" index="0" disallow="tram rail_urban rail rail_electric rail_fast ship" speed="13.89" length="0.92" shape="2145.51,1396.63 2145.31,1396.45 2145.19,1396.30 2145.11,1396.13 2145.03,1395.87"/>
    </edge>
    <edge id=":1239327029_0" function="internal">
        <lane id=":1239327029_0_0" index="0" disallow="tram rail_urban rail rail_electric rail_fast ship" speed="3.65" length="4.67" shape="2259.31,772.27 2258.75,770.94 2258.86,770.05 2259.64,769.60 2261.08,769.60"/>
    </edge>
    <edge id=":1239338301_0" function="internal">
        <lane id=":1239338301_0_0" index="0" disallow="tram rail_urban rail rail_electric rail_fast ship" speed="3.65" length="4.67" shape="1923.54,580.44 1924.94,580.79 1925.58,581.41 1925.47,582.30 1924.61,583.45"/>
    </edge>
    <edge id=":1239338303_0" function="internal">
        <lane id=":1239338303_0_0" index="0" disallow="tram rail_urban rail rail_electric rail_fast ship" speed="3.65" length="4.67" shape="1017.59,501.76 1016.23,501.27 1015.65,500.59 1015.85,499.71 1016.82,498.65"/>
    </edge>
    <edge id=":1239338315_0" function="internal">
        <lane id=":1239338315_0_0" index="0" disallow="tram rail_urban rail rail_electric rail_fast ship" speed="8.54" length="11.15" shape="1495.91,764.70 1494.88,761.47 1493.43,759.03 1491.58,757.37 1489.30,756.50"/>
    </edge>
    <edge id=":1239338315_1" function="internal">
        <lane id=":1239338315_1_0" index="0" disallow="tram rail_urban rail rail_electric rail_fast ship" speed="7.54" length="15.63" shape="1495.91,764.70 1495.54,760.20 1496.79,757.15 1499.67,755.54 1504.18,755.37"/>
    </edge>
    <edge id=":1239338315_2" function="internal">
        <lane id=":1239338315_2_0" index="0" disallow="tram rail_urban rail rail_electric rail_fast ship" speed="3.65" length="4.67" shape="1495.91,764.70 1496.43,763.35 1497.12,762.78 1497.99,762.99 1499.03,763.99"/>
    </edge>
    <edge id=":1239338315_3" function="internal">
        <lane id=":1239338315_3_0" index="0" disallow="tram rail_urban rail rail_electric rail_fast ship" speed="5.91" length="9.10" shape="1503.85,758.56 1501.22,758.65 1499.54,759.59 1498.81,761.37 1499.03,763.99"/>
    </edge>
    <edge id=":1239338315_4" function="internal">
        <lane id=":1239338315_4_0" index="0" disallow="tram rail_urban rail rail_electric rail_fast ship" speed="13.89" length="14.69" shape="1503.85,758.56 1489.30,756.50"/>
    </edge>
    <edge id=":1239338315_5" function="internal">
        <lane id=":1239338315_5_0" index="0" disallow="tram rail_urban rail rail_electric rail_fast ship" speed="3.65" length="1.44" shape="1503.85,758.56 1502.74,757.64"/>
    </edge>
    <edge id=":1239338315_9" function="internal">
        <lane id=":1239338315_9_0" index="0" disallow="tram rail_urban rail rail_electric rail_fast ship" speed="3.65" length="3.23" shape="1502.74,757.64 1502.42,756.80 1502.90,756.04 1504.18,755.37"/>
    </edge>
    <edge id=":1239338315_6" function="internal">
        <lane id=":1239338315_6_0" index="0" disallow="tram rail_urban rail rail_electric rail_fast ship" speed="13.89" length="14.42" shape="1489.91,753.36 1504.18,755.37"/>
    </edge>
    <edge id=":1239338315_7" function="internal">
        <lane id=":1239338315_7_0" index="0" disallow="tram rail_urban rail rail_electric rail_fast ship" speed="9.78" length="3.40" shape="1489.91,753.36 1493.10,754.53"/>
    </edge>
    <edge id=":1239338315_8" function="internal">
        <lane id=":1239338315_8_0" index="0" disallow="tram rail_urban rail rail_electric rail_fast ship" speed="3.65" length="1.44" shape="1489.91,753.36 1490.94,754.37"/>
    </edge>
    <edge id=":1239338315_10" function="internal">
        <lane id=":1239338315_10_0" index="0" disallow="tram rail_urban rail rail_electric rail_fast ship" speed="9.78" length="11.45" shape="1493.10,754.53 1495.69,756.69 1497.67,759.84 1499.03,763.99"/>
    </edge>
    <edge id=":1239338315_11" function="internal">
        <lane id=":1239338315_11_0" index="0" disallow="tram rail_urban rail rail_electric rail_fast ship" speed="3.65" length="3.23" shape="1490.94,754.37 1491.18,755.23 1490.63,755.94 1489.30,756.50"/>
    </edge>
    <edge id=":1239338319_0" function="internal">
        <lane id=":1239338319_0_0" index="0" allow="pedestrian delivery bicycle" speed="5.34" length="5.46" shape="1544.42,757.82 1543.77,756.46 1542.85,755.61 1541.67,755.25 1540.21,755.40"/>
    </edge>
    <edge id=":1239338319_1" function="internal">
        <lane id=":1239338319_1_0" index="0" allow="pedestrian delivery bicycle" speed="5.56" length="9.71" shape="1544.42,757.82 1541.65,748.51"/>
    </edge>
    <edge id=":1239338319_2" function="internal">
        <lane id=":1239338319_2_0" index="0" allow="pedestrian delivery bicycle" speed="6.82" length="10.42" shape="1544.42,757.82 1543.94,754.98 1544.50,752.71 1546.10,751.02 1548.75,749.89"/>
    </edge>
    <edge id=":1239338319_3" function="internal">
        <lane id=":1239338319_3_0" index="0" allow="pedestrian delivery bicycle" speed="3.65" length="4.67" shape="1544.42,757.82 1544.81,756.43 1545.45,755.80 1546.34,755.94 1547.47,756.83"/>
    </edge>
    <edge id=":1239338319_4" function="internal">
        <lane id=":1239338319_4_0" index="0" allow="pedestrian delivery bicycle" speed="4.99" length="5.06" shape="1549.57,752.98 1548.28,753.53 1547.50,754.35 1547.23,755.46 1547.47,756.83"/>
    </edge>
    <edge id=":1239338319_5" function="internal">
        <lane id=":1239338319_5_0" index="0" disallow="tram rail_urban rail rail_electric rail_fast ship" speed="13.89" length="9.66" shape="1549.57,752.98 1540.21,755.40"/>
    </edge>
    <edge id=":1239338319_6" function="internal">
        <lane id=":1239338319_6_0" index="0" allow="pedestrian delivery bicycle" speed="6.94" length="1.77" shape="1549.57,752.98 1547.81,753.20"/>
    </edge>
    <edge id=":1239338319_14" function="internal">
        <lane id=":1239338319_14_0" index="0" allow="pedestrian delivery bicycle" speed="6.94" length="8.58" shape="1547.81,753.20 1546.73,753.33 1544.47,752.69 1542.77,751.09 1541.65,748.51"/>
    </edge>
    <edge id=":1239338319_7" function="internal">
        <lane id=":1239338319_7_0" index="0" allow="pedestrian delivery bicycle" speed="5.14" length="5.22" shape="1544.74,747.67 1545.30,748.96 1546.16,749.76 1547.31,750.07 1548.75,749.89"/>
    </edge>
    <edge id=":1239338319_8" function="internal">
        <lane id=":1239338319_8_0" index="0" allow="pedestrian delivery bicycle" speed="5.56" length="9.56" shape="1544.74,747.67 1547.47,756.83"/>
    </edge>
    <edge id=":1239338319_9" function="internal">
        <lane id=":1239338319_9_0" index="0" allow="pedestrian delivery bicycle" speed="6.84" length="10.26" shape="1544.74,747.67 1545.09,750.47 1544.45,752.69 1542.82,754.33 1540.21,755.40"/>
    </edge>
    <edge id=":1239338319_10" function="internal">
        <lane id=":1239338319_10_0" index="0" allow="pedestrian delivery bicycle" speed="3.65" length="4.67" shape="1544.74,747.67 1544.28,749.04 1543.61,749.63 1542.74,749.46 1541.65,748.51"/>
    </edge>
    <edge id=":1239338319_11" function="internal">
        <lane id=":1239338319_11_0" index="0" allow="pedestrian delivery bicycle" speed="5.02" length="5.02" shape="1539.44,752.30 1540.71,751.77 1541.51,750.97 1541.82,749.88 1541.65,748.51"/>
    </edge>
    <edge id=":1239338319_12" function="internal">
        <lane id=":1239338319_12_0" index="0" disallow="tram rail_urban rail rail_electric rail_fast ship" speed="13.89" length="9.62" shape="1539.44,752.30 1548.75,749.89"/>
    </edge>
    <edge id=":1239338319_13" function="internal">
        <lane id=":1239338319_13_0" index="0" allow="pedestrian delivery bicycle" speed="7.09" length="1.75" shape="1539.44,752.30 1541.18,752.12"/>
    </edge>